data/pglib_opf_case1888_rte_storage.m
%%%%%%%%%%%%%%%%%%%%%%%%%%%%%%%%%%%%%%%%%%%%%%%%%%%%%%%%%%%%%%%%%%%%%%%%%%%
%%%%                                                                  %%%%%
%%%%    IEEE PES Power Grid Library - Optimal Power Flow - v23.07     %%%%%
%%%%          (https://github.com/power-grid-lib/pglib-opf)           %%%%%
%%%%               Benchmark Group - Typical Operations               %%%%%
%%%%                         23 - July - 2023                         %%%%%
%%%%                                                                  %%%%%
%%%%%%%%%%%%%%%%%%%%%%%%%%%%%%%%%%%%%%%%%%%%%%%%%%%%%%%%%%%%%%%%%%%%%%%%%%%
%
%CASE1888RTE
%   AC Power flow data for French system.
%   Please see CASEFORMAT for details on the case file format.
%
%   This case accurately represents the size and complexity of French
%   very high voltage transmission network.
%   Part of this data was sampled in the offline platform of iTesla.
%   These data can be used to validate mathematical methods and tools.
%   These data should NOT be used for operation
%   nor planning of the French or European grids.
%
%   When publishing results using this data, please cite:
%     C. Josz, S. Fliscounakis, J. Maeght, and P. Panciatici,
%     "AC Power Flow Data in MATPOWER and QCQP Format: iTesla, RTE Snapshots, and PEGASE"
%     http://arxiv.org/abs/1603.01533
%
%   Contacts (primary contact for this file : Jean Maeght):
%   Cédric Josz, Stéphane Fliscounakis, Jean Maeght, Patrick Panciatici
%   firstname.lastname@rte-france.com
%   Réseau de Transport d'Electricité (French Transmission System Operator)
%   Département Expertise Système, Immeuble "Le Colbert"
%   9 rue de la Porte de Buc, 78000 Versailles Cedex, France
%   March 4th, 2016
%
%   Copyright (c) 2016 by Cédric Josz, Stéphane Fliscounakis, Jean Maeght,
%   and Patrick Panciatici
%   Licensed under the Creative Commons Attribution 4.0 International license,
%   http://creativecommons.org/licenses/by/4.0/
%
% Modified to have additional storage capacity and increased gencost
function mpc = pglib_opf_case1888_rte
mpc.version = '2';
mpc.baseMVA = 100.0;

%% bus data
%	bus_i	type	Pd	Qd	Gs	Bs	area	Vm	Va	baseKV	zone	Vmax	Vmin
mpc.bus = [
	1	 1	 5.8	 -5.8	 0.0	 0.0	 1	    0.98889	    0.00000	 225.0	 1	    1.08889	    0.88889;
	2	 1	 0.0	 0.0	 0.0	 0.0	 1	    1.07552	    0.00000	 380.0	 1	    1.10263	    1.04841;
	3	 1	 142.5	 -13.4	 0.0	 0.0	 1	    1.04444	    0.00000	 225.0	 1	    1.08444	    1.00444;
	4	 1	 0.0	 0.0	 0.0	 0.0	 1	    1.00334	    0.00000	 150.0	 1	    1.10667	    0.90000;
	5	 1	 32.8	 -5.3	 0.0	 0.0	 1	    1.01111	    0.00000	 225.0	 1	    1.08889	    0.93333;
	6	 1	 40.2	 4.0	 0.0	 0.0	 1	    1.01111	    0.00000	 225.0	 1	    1.08889	    0.93333;
	7	 1	 0.0	 0.0	 0.0	 0.0	 1	    1.07237	    0.00000	 380.0	 1	    1.10526	    1.03947;
	8	 1	 0.0	 0.0	 0.0	 0.0	 1	    1.07237	    0.00000	 380.0	 1	    1.10526	    1.03947;
	9	 1	 0.0	 0.0	 0.0	 0.0	 1	    1.04739	    0.00000	 225.0	 1	    1.09035	    1.00444;
	10	 1	 148.8	 14.9	 0.0	 0.0	 1	    1.01111	    0.00000	 225.0	 1	    1.08889	    0.93333;
	11	 1	 25.6	 5.0	 0.0	 0.0	 1	    1.04666	    0.00000	 225.0	 1	    1.08889	    1.00444;
	12	 1	 39.1	 8.7	 0.0	 0.0	 1	    1.04666	    0.00000	 225.0	 1	    1.08889	    1.00444;
	13	 1	 70.5	 17.2	 0.0	 0.0	 1	    1.04666	    0.00000	 225.0	 1	    1.08889	    1.00444;
	14	 1	 36.0	 -4.2	 0.0	 0.0	 1	    1.01626	    0.00000	 225.0	 1	    1.08252	    0.95000;
	15	 1	 0.0	 0.0	 0.0	 0.0	 1	    1.04666	    0.00000	 225.0	 1	    1.08889	    1.00444;
	16	 1	 0.0	 0.0	 0.0	 0.0	 1	    1.04666	    0.00000	 225.0	 1	    1.08889	    1.00444;
	17	 1	 23.7	 -12.4	 0.0	 0.0	 1	    0.98889	    0.00000	 225.0	 1	    1.08889	    0.88889;
	18	 1	 5.9	 -4.8	 0.0	 0.0	 1	    1.04150	    0.00000	 225.0	 1	    1.09633	    0.98667;
	19	 1	 34.0	 3.7	 0.0	 0.0	 1	    1.04666	    0.00000	 225.0	 1	    1.08889	    1.00444;
	20	 1	 6.9	 0.8	 0.0	 0.0	 1	    1.04666	    0.00000	 225.0	 1	    1.08889	    1.00444;
	21	 1	 9.2	 -29.1	 0.0	 0.0	 1	    1.04666	    0.00000	 225.0	 1	    1.08889	    1.00444;
	22	 1	 67.7	 -3.6	 0.0	 0.0	 1	    1.03778	    0.00000	 225.0	 1	    1.08889	    0.98667;
	23	 1	 25.4	 -2.7	 0.0	 0.0	 1	    0.98889	    0.00000	 225.0	 1	    1.08889	    0.88889;
	25	 1	 64.0	 4.6	 0.0	 0.0	 1	    1.04666	    0.00000	 225.0	 1	    1.08444	    1.00889;
	27	 1	 71.6	 46.7	 0.0	 0.0	 1	    1.01111	    0.00000	 225.0	 1	    1.08889	    0.93333;
	28	 1	 105.4	 6.9	 0.0	 0.0	 1	    1.04666	    0.00000	 225.0	 1	    1.08889	    1.00444;
	29	 1	 0.0	 0.0	 0.0	 0.0	 1	    1.07684	    0.00000	 380.0	 1	    1.10526	    1.04842;
	30	 1	 0.0	 0.0	 0.0	 0.0	 1	    1.07684	    0.00000	 380.0	 1	    1.10526	    1.04842;
	31	 1	 21.7	 0.9	 0.0	 0.0	 1	    1.04666	    0.00000	 225.0	 1	    1.08444	    1.00889;
	33	 1	 68.9	 2.6	 0.0	 0.0	 1	    1.04666	    0.00000	 225.0	 1	    1.08444	    1.00889;
	34	 1	 50.6	 12.7	 0.0	 0.0	 1	    1.04666	    0.00000	 225.0	 1	    1.08889	    1.00444;
	35	 1	 17.0	 2.1	 0.0	 0.0	 1	    1.02333	    0.00000	 150.0	 1	    1.08000	    0.96667;
	36	 1	 38.2	 6.3	 0.0	 0.0	 1	    1.04606	    0.00000	 225.0	 1	    1.09212	    1.00000;
	37	 1	 0.0	 0.0	 0.0	 0.0	 1	    1.07655	    0.00000	 380.0	 1	    1.10526	    1.04785;
	38	 1	 89.0	 9.6	 0.0	 0.0	 1	    1.03778	    0.00000	 225.0	 1	    1.08889	    0.98667;
	2050	 1	 0.0	 0.0	 0.0	 -64.0	 1	    1.15000	    0.00000	 20.0	 1	    1.50000	    0.80000;
	39	 1	 70.9	 -2.3	 0.0	 0.0	 1	    1.02889	    0.00000	 225.0	 1	    1.08889	    0.96889;
	40	 1	 136.2	 -10.7	 0.0	 0.0	 1	    1.05263	    0.00000	 380.0	 1	    1.10526	    1.00000;
	41	 1	 64.6	 17.3	 0.0	 0.0	 1	    1.01111	    0.00000	 225.0	 1	    1.08889	    0.93333;
	42	 1	 13.4	 3.3	 0.0	 0.0	 1	    0.98889	    0.00000	 225.0	 1	    1.08889	    0.88889;
	43	 1	 33.3	 4.7	 0.0	 0.0	 1	    0.98889	    0.00000	 225.0	 1	    1.08889	    0.88889;
	44	 1	 211.6	 -1.3	 0.0	 0.0	 1	    1.04470	    0.00000	 225.0	 1	    1.08496	    1.00444;
	45	 1	 92.1	 -9.1	 0.0	 0.0	 1	    1.04666	    0.00000	 225.0	 1	    1.08889	    1.00444;
	46	 2	 0.0	 0.0	 0.0	 0.0	 1	    1.00422	    0.00000	 150.0	 1	    1.10843	    0.90000;
	47	 1	 0.0	 0.0	 0.0	 0.0	 1	    1.04666	    0.00000	 225.0	 1	    1.08889	    1.00444;
	48	 1	 0.0	 0.0	 0.0	 0.0	 1	    1.04666	    0.00000	 225.0	 1	    1.08889	    1.00444;
	49	 1	 63.7	 84.5	 0.0	 -80.0	 1	    1.04666	    0.00000	 225.0	 1	    1.08889	    1.00444;
	50	 1	 10.4	 6.6	 0.0	 0.0	 1	    1.04666	    0.00000	 225.0	 1	    1.08889	    1.00444;
	51	 1	 0.0	 0.0	 0.0	 0.0	 1	    1.04445	    0.00000	 225.0	 1	    1.08889	    1.00000;
	52	 1	 68.7	 16.5	 0.0	 0.0	 1	    0.98889	    0.00000	 225.0	 1	    1.08889	    0.88889;
	53	 1	 101.2	 15.9	 0.0	 0.0	 1	    1.02889	    0.00000	 225.0	 1	    1.08889	    0.96889;
	54	 1	 0.0	 0.0	 0.0	 0.0	 1	    1.05263	    0.00000	 380.0	 1	    1.10526	    1.00000;
	55	 1	 28.9	 10.6	 0.0	 0.0	 1	    1.04666	    0.00000	 225.0	 1	    1.08444	    1.00889;
	56	 1	 28.2	 2.1	 0.0	 0.0	 1	    1.04666	    0.00000	 225.0	 1	    1.08444	    1.00889;
	1827	 1	 109.6	 -12.9	 0.0	 0.0	 1	    1.04666	    0.00000	 225.0	 1	    1.08889	    1.00444;
	57	 1	 27.3	 -10.9	 0.0	 0.0	 1	    1.01139	    0.00000	 225.0	 1	    1.08945	    0.93333;
	58	 2	 0.0	 0.0	 0.0	 0.0	 1	    1.00431	    0.00000	 150.0	 1	    1.10862	    0.90000;
	59	 1	 36.8	 20.3	 0.0	 0.0	 1	    1.04666	    0.00000	 225.0	 1	    1.08444	    1.00889;
	60	 1	 36.5	 30.8	 0.0	 0.0	 1	    1.04666	    0.00000	 225.0	 1	    1.08444	    1.00889;
	61	 1	 0.0	 0.0	 0.0	 0.0	 1	    1.03333	    0.00000	 225.0	 1	    1.08889	    0.97778;
	62	 1	 8.4	 -0.3	 0.0	 0.0	 1	    0.98889	    0.00000	 225.0	 1	    1.08889	    0.88889;
	63	 1	 13.2	 -6.3	 0.0	 0.0	 1	    1.01111	    0.00000	 225.0	 1	    1.08889	    0.93333;
	64	 1	 13.2	 3.3	 0.0	 0.0	 1	    1.04666	    0.00000	 225.0	 1	    1.08889	    1.00444;
	65	 1	 22.7	 2.5	 0.0	 0.0	 1	    1.04666	    0.00000	 225.0	 1	    1.08889	    1.00444;
	66	 1	 11.4	 -9.7	 0.0	 0.0	 1	    1.04445	    0.00000	 225.0	 1	    1.08889	    1.00000;
	67	 1	 10.2	 -1.3	 0.0	 0.0	 1	    1.03778	    0.00000	 225.0	 1	    1.08889	    0.98667;
	68	 1	 0.0	 0.0	 0.0	 0.0	 1	    0.98889	    0.00000	 225.0	 1	    1.08889	    0.88889;
	69	 1	 0.0	 0.0	 0.0	 0.0	 1	    0.98889	    0.00000	 225.0	 1	    1.08889	    0.88889;
	70	 1	 0.0	 0.0	 0.0	 0.0	 1	    1.05921	    0.00000	 380.0	 1	    1.10526	    1.01316;
	71	 1	 39.2	 2.8	 0.0	 0.0	 1	    1.04666	    0.00000	 225.0	 1	    1.08889	    1.00444;
	72	 1	 19.3	 3.3	 0.0	 -80.0	 1	    1.04666	    0.00000	 225.0	 1	    1.08889	    1.00444;
	73	 1	 0.0	 0.0	 0.0	 0.0	 1	    1.03333	    0.00000	 225.0	 1	    1.08889	    0.97778;
	74	 1	 0.0	 0.0	 0.0	 0.0	 1	    1.03333	    0.00000	 225.0	 1	    1.08889	    0.97778;
	75	 1	 131.9	 3.2	 0.0	 0.0	 1	    1.04666	    0.00000	 225.0	 1	    1.08444	    1.00889;
	76	 1	 0.0	 0.0	 0.0	 0.0	 1	    1.04444	    0.00000	 225.0	 1	    1.08444	    1.00444;
	77	 1	 0.0	 0.0	 0.0	 0.0	 1	    1.07237	    0.00000	 380.0	 1	    1.10263	    1.04211;
	78	 1	 94.6	 -1.9	 0.0	 0.0	 1	    1.04444	    0.00000	 225.0	 1	    1.08444	    1.00444;
	79	 1	 -1.7	 -4.6	 0.0	 0.0	 1	    1.04690	    0.00000	 225.0	 1	    1.08936	    1.00444;
	80	 1	 3.6	 -7.2	 0.0	 0.0	 1	    1.04690	    0.00000	 225.0	 1	    1.08936	    1.00444;
	81	 1	 35.4	 10.9	 0.0	 0.0	 1	    0.98889	    0.00000	 225.0	 1	    1.08889	    0.88889;
	82	 1	 15.1	 0.7	 0.0	 0.0	 1	    1.01562	    0.00000	 225.0	 1	    1.08124	    0.95000;
	83	 1	 57.4	 18.0	 0.0	 0.0	 1	    0.98889	    0.00000	 225.0	 1	    1.08889	    0.88889;
	84	 1	 89.9	 -5.8	 0.0	 0.0	 1	    1.04445	    0.00000	 225.0	 1	    1.08889	    1.00000;
	85	 1	 0.0	 0.0	 0.0	 0.0	 1	    1.04445	    0.00000	 225.0	 1	    1.08889	    1.00000;
	86	 1	 239.8	 17.5	 0.0	 0.0	 1	    1.07798	    0.00000	 380.0	 1	    1.10526	    1.05070;
	87	 1	 35.5	 16.0	 0.0	 0.0	 1	    1.04445	    0.00000	 225.0	 1	    1.08889	    1.00000;
	88	 1	 76.1	 23.0	 0.0	 0.0	 1	    1.04445	    0.00000	 225.0	 1	    1.08889	    1.00000;
	89	 2	 0.0	 0.0	 0.0	 0.0	 1	    1.00000	    0.00000	 150.0	 1	    1.10000	    0.90000;
	90	 1	 21.3	 12.0	 0.0	 0.0	 1	    1.03778	    0.00000	 225.0	 1	    1.08889	    0.98667;
	91	 1	 11.2	 -5.2	 0.0	 0.0	 1	    1.04666	    0.00000	 225.0	 1	    1.08444	    1.00889;
	92	 1	 0.0	 0.0	 0.0	 0.0	 1	    1.07369	    0.00000	 380.0	 1	    1.10526	    1.04211;
	93	 1	 0.0	 0.0	 0.0	 0.0	 1	    1.07369	    0.00000	 380.0	 1	    1.10526	    1.04211;
	96	 1	 11.7	 1.3	 0.0	 0.0	 1	    1.04445	    0.00000	 225.0	 1	    1.08889	    1.00000;
	97	 1	 6.1	 1.4	 0.0	 0.0	 1	    1.04666	    0.00000	 225.0	 1	    1.08889	    1.00444;
	98	 1	 31.6	 2.6	 0.0	 0.0	 1	    1.00000	    0.00000	 150.0	 1	    1.10000	    0.90000;
	99	 1	 68.9	 -11.7	 0.0	 0.0	 1	    1.04445	    0.00000	 225.0	 1	    1.08889	    1.00000;
	100	 2	 0.2	 -0.0	 0.0	 0.0	 1	    1.01647	    0.00000	 225.0	 1	    1.08294	    0.95000;
	101	 1	 0.0	 0.0	 0.0	 0.0	 1	    1.01111	    0.00000	 225.0	 1	    1.08889	    0.93333;
	102	 1	 0.0	 0.0	 0.0	 0.0	 1	    1.07237	    0.00000	 380.0	 1	    1.10526	    1.03947;
	103	 1	 0.0	 0.0	 0.0	 0.0	 1	    1.07237	    0.00000	 380.0	 1	    1.10526	    1.03947;
	104	 1	 0.0	 0.0	 0.0	 0.0	 1	    1.04666	    0.00000	 225.0	 1	    1.08889	    1.00444;
	1828	 1	 30.1	 3.8	 0.0	 0.0	 1	    1.04666	    0.00000	 225.0	 1	    1.08889	    1.00444;
	105	 1	 0.0	 0.0	 0.0	 0.0	 1	    1.03778	    0.00000	 225.0	 1	    1.08889	    0.98667;
	106	 1	 12.1	 4.5	 0.0	 0.0	 1	    1.04666	    0.00000	 225.0	 1	    1.08889	    1.00444;
	107	 1	 106.1	 -0.3	 0.0	 0.0	 1	    1.01111	    0.00000	 225.0	 1	    1.08889	    0.93333;
	108	 1	 0.0	 0.0	 0.0	 0.0	 1	    1.07237	    0.00000	 380.0	 1	    1.10526	    1.03947;
	109	 1	 43.3	 8.4	 0.0	 0.0	 1	    1.04445	    0.00000	 225.0	 1	    1.08889	    1.00000;
	110	 1	 33.2	 -7.5	 0.0	 0.0	 1	    1.04715	    0.00000	 225.0	 1	    1.08986	    1.00444;
	111	 1	 99.5	 -12.4	 0.0	 0.0	 1	    1.04806	    0.00000	 225.0	 1	    1.09612	    1.00000;
	112	 1	 116.4	 -6.7	 0.0	 0.0	 1	    1.03778	    0.00000	 225.0	 1	    1.08889	    0.98667;
	113	 1	 65.7	 14.7	 0.0	 0.0	 1	    1.04740	    0.00000	 225.0	 1	    1.09036	    1.00444;
	114	 1	 107.2	 21.2	 0.0	 0.0	 1	    1.00667	    0.00000	 225.0	 1	    1.08889	    0.92444;
	115	 1	 56.9	 -2.7	 0.0	 0.0	 1	    1.04140	    0.00000	 225.0	 1	    1.09614	    0.98667;
	117	 1	 0.0	 0.0	 0.0	 0.0	 1	    1.07237	    0.00000	 380.0	 1	    1.10526	    1.03947;
	119	 1	 123.6	 -19.8	 0.0	 0.0	 1	    1.04444	    0.00000	 225.0	 1	    1.08444	    1.00444;
	2051	 1	 0.0	 0.0	 0.0	 -64.0	 1	    1.10000	    0.00000	 20.0	 1	    1.40000	    0.80000;
	120	 1	 33.3	 -21.3	 0.0	 0.0	 1	    1.04666	    0.00000	 225.0	 1	    1.08444	    1.00889;
	121	 1	 0.0	 0.0	 0.0	 0.0	 1	    1.06579	    0.00000	 380.0	 1	    1.10263	    1.02895;
	122	 1	 1.7	 -4.4	 0.0	 0.0	 1	    1.01111	    0.00000	 225.0	 1	    1.08889	    0.93333;
	123	 1	 140.3	 17.3	 0.0	 0.0	 1	    1.01111	    0.00000	 225.0	 1	    1.08889	    0.93333;
	124	 1	 33.7	 -1.8	 0.0	 0.0	 1	    1.00000	    0.00000	 63.0	 1	    1.07937	    0.92063;
	125	 2	 0.0	 0.0	 0.0	 0.0	 1	    1.01238	    0.00000	 225.0	 1	    1.07476	    0.95000;
	126	 1	 -1.9	 -5.4	 0.0	 0.0	 1	    1.04884	    0.00000	 225.0	 1	    1.09768	    1.00000;
	127	 1	 0.0	 0.0	 0.0	 0.0	 1	    1.07895	    0.00000	 380.0	 1	    1.10526	    1.05263;
	128	 1	 0.0	 0.0	 0.0	 0.0	 1	    1.07895	    0.00000	 380.0	 1	    1.10526	    1.05263;
	129	 1	 0.0	 0.0	 0.0	 0.0	 1	    1.07895	    0.00000	 380.0	 1	    1.10526	    1.05263;
	130	 1	 0.0	 0.0	 0.0	 0.0	 1	    1.07895	    0.00000	 380.0	 1	    1.10526	    1.05263;
	131	 1	 0.0	 0.0	 0.0	 0.0	 1	    1.04156	    0.00000	 225.0	 1	    1.09645	    0.98667;
	132	 1	 0.0	 0.0	 0.0	 0.0	 1	    1.04156	    0.00000	 225.0	 1	    1.09645	    0.98667;
	133	 1	 0.0	 0.0	 0.0	 0.0	 1	    1.07237	    0.00000	 380.0	 1	    1.10526	    1.03947;
	134	 1	 77.3	 -10.6	 0.0	 0.0	 1	    1.02889	    0.00000	 225.0	 1	    1.08889	    0.96889;
	135	 1	 28.1	 3.8	 0.0	 0.0	 1	    1.04666	    0.00000	 225.0	 1	    1.08444	    1.00889;
	136	 1	 -5.2	 -9.4	 0.0	 0.0	 1	    1.07237	    0.00000	 380.0	 1	    1.10526	    1.03947;
	137	 1	 106.4	 8.0	 0.0	 0.0	 1	    1.01111	    0.00000	 225.0	 1	    1.08889	    0.93333;
	138	 1	 0.0	 0.0	 0.0	 0.0	 1	    1.07237	    0.00000	 380.0	 1	    1.10526	    1.03947;
	140	 1	 113.7	 -8.3	 0.0	 0.0	 1	    1.04666	    0.00000	 225.0	 1	    1.08444	    1.00889;
	141	 1	 44.6	 0.5	 0.0	 0.0	 1	    1.04666	    0.00000	 225.0	 1	    1.08444	    1.00889;
	142	 1	 165.2	 -11.8	 0.0	 0.0	 1	    1.04444	    0.00000	 225.0	 1	    1.08444	    1.00444;
	143	 1	 29.2	 2.1	 0.0	 0.0	 1	    1.01111	    0.00000	 225.0	 1	    1.08889	    0.93333;
	144	 1	 32.8	 4.4	 0.0	 0.0	 1	    1.01111	    0.00000	 225.0	 1	    1.08889	    0.93333;
	145	 1	 19.0	 -18.1	 0.0	 0.0	 1	    1.04698	    0.00000	 225.0	 1	    1.08952	    1.00444;
	146	 1	 0.0	 0.0	 0.0	 0.0	 1	    1.04739	    0.00000	 225.0	 1	    1.09478	    1.00000;
	147	 1	 0.0	 0.0	 0.0	 0.0	 1	    1.04739	    0.00000	 225.0	 1	    1.09478	    1.00000;
	148	 1	 37.1	 5.6	 0.0	 0.0	 1	    1.04445	    0.00000	 225.0	 1	    1.08889	    1.00000;
	149	 1	 20.0	 -3.9	 0.0	 0.0	 1	    1.04666	    0.00000	 225.0	 1	    1.08889	    1.00444;
	150	 1	 38.1	 1.6	 0.0	 0.0	 1	    1.04666	    0.00000	 225.0	 1	    1.08444	    1.00889;
	151	 1	 24.8	 -1.8	 0.0	 0.0	 1	    1.04445	    0.00000	 225.0	 1	    1.08889	    1.00000;
	152	 1	 0.0	 0.0	 0.0	 0.0	 1	    1.04666	    0.00000	 225.0	 1	    1.08444	    1.00889;
	153	 1	 0.0	 0.0	 0.0	 0.0	 1	    1.04666	    0.00000	 225.0	 1	    1.08444	    1.00889;
	154	 1	 0.0	 0.0	 0.0	 0.0	 1	    1.04666	    0.00000	 225.0	 1	    1.08444	    1.00889;
	155	 1	 0.0	 0.0	 0.0	 0.0	 1	    1.06579	    0.00000	 380.0	 1	    1.10263	    1.02895;
	156	 1	 155.3	 26.5	 0.0	 0.0	 1	    0.98889	    0.00000	 225.0	 1	    1.08889	    0.88889;
	157	 1	 0.0	 0.0	 0.0	 0.0	 1	    1.04883	    0.00000	 225.0	 1	    1.09766	    1.00000;
	158	 1	 0.0	 0.0	 0.0	 0.0	 1	    1.07895	    0.00000	 380.0	 1	    1.10526	    1.05263;
	159	 1	 21.5	 4.4	 0.0	 0.0	 1	    1.03778	    0.00000	 225.0	 1	    1.08889	    0.98667;
	160	 1	 26.2	 2.1	 0.0	 0.0	 1	    1.04445	    0.00000	 225.0	 1	    1.08889	    1.00000;
	161	 1	 0.0	 0.0	 0.0	 0.0	 1	    1.04444	    0.00000	 225.0	 1	    1.08444	    1.00444;
	162	 1	 0.0	 0.0	 0.0	 0.0	 1	    1.04444	    0.00000	 225.0	 1	    1.08444	    1.00444;
	163	 1	 0.0	 0.0	 0.0	 0.0	 1	    1.04444	    0.00000	 225.0	 1	    1.08444	    1.00444;
	164	 1	 55.3	 -11.4	 0.0	 0.0	 1	    1.04444	    0.00000	 225.0	 1	    1.08444	    1.00444;
	165	 1	 0.0	 0.0	 0.0	 0.0	 1	    1.01111	    0.00000	 225.0	 1	    1.08889	    0.93333;
	166	 1	 30.0	 12.3	 0.0	 0.0	 1	    1.03778	    0.00000	 225.0	 1	    1.08889	    0.98667;
	2019	 1	 0.0	 0.0	 0.0	 -64.0	 1	    1.15000	    0.00000	 20.0	 1	    1.40000	    0.90000;
	167	 1	 0.0	 0.0	 0.0	 0.0	 1	    1.04470	    0.00000	 225.0	 1	    1.08941	    1.00000;
	168	 1	 0.0	 0.0	 0.0	 0.0	 1	    1.07895	    0.00000	 380.0	 1	    1.10526	    1.05263;
	169	 2	 0.0	 0.0	 0.0	 0.0	 1	    1.00000	    0.00000	 225.0	 1	    1.10000	    0.90000;
	170	 1	 17.8	 2.6	 0.0	 0.0	 1	    1.02333	    0.00000	 150.0	 1	    1.08000	    0.96667;
	171	 1	 25.3	 -3.2	 0.0	 0.0	 1	    1.04666	    0.00000	 225.0	 1	    1.08889	    1.00444;
	172	 1	 -3.7	 -2.0	 0.0	 0.0	 1	    1.04666	    0.00000	 225.0	 1	    1.08889	    1.00444;
	173	 1	 37.3	 0.7	 0.0	 0.0	 1	    0.98889	    0.00000	 225.0	 1	    1.08889	    0.88889;
	181	 1	 107.9	 3.9	 0.0	 0.0	 1	    1.04445	    0.00000	 225.0	 1	    1.08889	    1.00000;
	182	 1	 29.5	 6.8	 0.0	 0.0	 1	    1.03778	    0.00000	 225.0	 1	    1.08889	    0.98667;
	183	 1	 0.0	 0.0	 0.0	 0.0	 1	    1.07237	    0.00000	 380.0	 1	    1.10526	    1.03947;
	184	 1	 0.0	 0.0	 0.0	 0.0	 1	    1.07237	    0.00000	 380.0	 1	    1.10526	    1.03947;
	185	 1	 0.0	 0.0	 0.0	 0.0	 1	    1.07237	    0.00000	 380.0	 1	    1.10526	    1.03947;
	186	 1	 0.0	 0.0	 0.0	 0.0	 1	    1.07237	    0.00000	 380.0	 1	    1.10526	    1.03947;
	187	 1	 28.1	 -10.0	 0.0	 0.0	 1	    1.00667	    0.00000	 225.0	 1	    1.08889	    0.92444;
	188	 1	 -2.0	 -1.1	 0.0	 0.0	 1	    1.03778	    0.00000	 225.0	 1	    1.08889	    0.98667;
	189	 1	 65.8	 19.1	 0.0	 0.0	 1	    1.04444	    0.00000	 225.0	 1	    1.08444	    1.00444;
	190	 1	 -2.3	 1.2	 0.0	 0.0	 1	    1.07237	    0.00000	 380.0	 1	    1.10263	    1.04211;
	191	 1	 -2.3	 1.4	 0.0	 0.0	 1	    1.07237	    0.00000	 380.0	 1	    1.10263	    1.04211;
	192	 1	 0.0	 0.0	 0.0	 0.0	 1	    1.04666	    0.00000	 225.0	 1	    1.08889	    1.00444;
	193	 1	 0.0	 0.0	 0.0	 0.0	 1	    1.03333	    0.00000	 225.0	 1	    1.08889	    0.97778;
	194	 1	 0.0	 0.0	 0.0	 0.0	 1	    1.03333	    0.00000	 225.0	 1	    1.08889	    0.97778;
	195	 1	 83.6	 -8.6	 0.0	 0.0	 1	    1.02889	    0.00000	 225.0	 1	    1.08889	    0.96889;
	196	 1	 0.0	 0.0	 0.0	 0.0	 1	    1.01111	    0.00000	 225.0	 1	    1.08889	    0.93333;
	197	 1	 0.0	 0.0	 0.0	 0.0	 1	    1.01111	    0.00000	 225.0	 1	    1.08889	    0.93333;
	198	 1	 57.5	 10.2	 0.0	 0.0	 1	    1.04444	    0.00000	 225.0	 1	    1.08444	    1.00444;
	199	 1	 177.4	 -31.4	 0.0	 0.0	 1	    1.04444	    0.00000	 225.0	 1	    1.08444	    1.00444;
	200	 1	 0.0	 0.0	 0.0	 0.0	 1	    1.03333	    0.00000	 225.0	 1	    1.08889	    0.97778;
	201	 1	 0.0	 0.0	 0.0	 0.0	 1	    1.04444	    0.00000	 225.0	 1	    1.08444	    1.00444;
	202	 1	 124.2	 -3.2	 0.0	 0.0	 1	    1.02000	    0.00000	 225.0	 1	    1.08889	    0.95111;
	203	 1	 35.3	 1.9	 0.0	 0.0	 1	    1.04666	    0.00000	 225.0	 1	    1.08889	    1.00444;
	204	 1	 51.6	 -4.0	 0.0	 0.0	 1	    1.03778	    0.00000	 225.0	 1	    1.08889	    0.98667;
	2086	 1	 0.0	 0.0	 0.0	 -64.0	 1	    1.10000	    0.00000	 20.0	 1	    1.40000	    0.80000;
	205	 1	 16.9	 -1.8	 0.0	 0.0	 1	    1.04666	    0.00000	 225.0	 1	    1.08444	    1.00889;
	206	 1	 0.0	 0.0	 0.0	 0.0	 1	    1.06579	    0.00000	 380.0	 1	    1.10263	    1.02895;
	207	 1	 38.6	 -0.7	 0.0	 0.0	 1	    1.04666	    0.00000	 225.0	 1	    1.08889	    1.00444;
	1829	 2	 0.0	 0.0	 0.0	 0.0	 1	    1.01429	    0.00000	 225.0	 1	    1.07859	    0.95000;
	208	 1	 0.0	 0.0	 0.0	 0.0	 1	    0.98889	    0.00000	 225.0	 1	    1.08889	    0.88889;
...
];

%% generator data
%	bus	Pg	Qg	Qmax	Qmin	Vg	mBase	status	Pmax	Pmin
mpc.gen = [
	1268	 44.5	 9.0	 27.0	 -9.0	 1.01773	 100.0	 1	 45.0	 44.0; % NG
	1268	 44.5	 9.0	 27.0	 -9.0	 1.01773	 100.0	 1	 45.0	 44.0; % PEL
	1356	 13.2	 -2.5	 7.0	 -12.0	 1.014075	 100.0	 1	 22.0	 4.4; % PEL
	89	 15.0	 2.0	 13.0	 -9.0	 1.0	 100.0	 1	 25.0	 5.0; % PEL
	125	 14.04	 -4.5	 8.0	 -17.0	 1.01238	 100.0	 1	 23.4	 4.68; % PEL
	908	 12.0	 1.95	 2.0	 1.9	 1.004395	 100.0	 1	 20.0	 4.0; % NG
	817	 0.0	 0.0	 1.0	 0.9	 1.004235	 100.0	 0	 12.0	 2.4; % NG
	817	 8.4	 0.95	 1.0	 0.9	 1.004235	 100.0	 1	 14.0	 2.8; % COW
	817	 0.0	 0.0	 1.0	 0.9	 1.004235	 100.0	 0	 12.0	 2.4; % NG
	1335	 18.0	 0.0	 10.0	 -10.0	 1.0	 100.0	 1	 30.0	 6.0; % PEL
	396	 6.6	 3.0	 5.0	 1.0	 1.0	 100.0	 1	 11.0	 2.2; % COW
	396	 6.6	 3.0	 5.0	 1.0	 1.0	 100.0	 1	 11.0	 2.2; % PEL
	975	 21.0	 0.0	 15.0	 -15.0	 1.0	 100.0	 1	 35.0	 7.0; % NG
	858	 33.24	 0.0	 0.0	 0.0	 1.019305	 100.0	 1	 55.4	 11.08; % NG
	921	 25.2	 2.5	 25.0	 -20.0	 1.0	 100.0	 1	 42.0	 8.4; % NG
	921	 25.2	 2.5	 25.0	 -20.0	 1.0	 100.0	 1	 42.0	 8.4; % NG
	1255	 52.2	 0.87	 26.1	 -24.36	 1.01587	 100.0	 1	 87.0	 17.4; % NG
	169	 4.98	 0.0	 8.3	 -8.3	 1.0	 100.0	 1	 8.3	 1.66; % COW
	448	 2.0	 0.0	 0.0	 0.0	 1.01761	 100.0	 1	 4.0	 0.0; % NG
	241	 7.8	 0.0	 5.0	 -5.0	 1.0	 100.0	 1	 13.0	 2.6; % NG
	241	 7.8	 0.0	 5.0	 -5.0	 1.0	 100.0	 1	 13.0	 2.6; % NG
	241	 7.8	 0.0	 5.0	 -5.0	 1.0	 100.0	 1	 13.0	 2.6; % NG
	241	 7.8	 0.0	 5.0	 -5.0	 1.0	 100.0	 1	 13.0	 2.6; % NG
	270	 30.0	 9.0	 27.0	 -9.0	 1.00923	 100.0	 1	 50.0	 10.0; % NG
	885	 4.8	 0.0	 0.0	 0.0	 1.018935	 100.0	 1	 8.0	 1.6; % NG
	885	 4.8	 0.0	 0.0	 0.0	 1.018935	 100.0	 1	 8.0	 1.6; % COW
	876	 32.4	 0.0	 0.0	 0.0	 1.018115	 100.0	 1	 54.0	 10.8; % COW
	46	 18.0	 3.0	 10.0	 -4.0	 1.004215	 100.0	 1	 30.0	 6.0; % PEL
	803	 8.28	 -0.465	 4.63	 -5.56	 1.012885	 100.0	 1	 13.8	 2.76; % NG
	356	 24.84	 0.415	 12.42	 -11.59	 1.01705	 100.0	 1	 41.4	 8.28; % NG
	100	 78.0	 16.5	 59.0	 -26.0	 1.01647	 100.0	 1	 130.0	 26.0; % NG
	707	 12.6	 0.0	 8.0	 -8.0	 1.0	 100.0	 1	 21.0	 4.2; % NG
	973	 -0.0	 0.0	 0.0	 0.0	 1.01855	 100.0	 0	 0.0	 -8.0; % SYNC
	973	 31.8	 3.5	 17.0	 -10.0	 1.01855	 100.0	 1	 53.0	 10.6; % NG
	1118	 33.0	 0.0	 0.0	 0.0	 1.013845	 100.0	 1	 55.0	 11.0; % NG
	897	 16.2	 3.5	 10.0	 -3.0	 1.0	 100.0	 1	 27.0	 5.4; % PEL
	897	 16.2	 3.5	 10.0	 -3.0	 1.0	 100.0	 1	 27.0	 5.4; % NG
	58	 0.0	 0.0	 2.0	 1.9	 1.00431	 100.0	 0	 6.0	 1.2; % NG
	82	 15.18	 0.0	 0.0	 0.0	 1.01562	 100.0	 1	 25.3	 5.06; % NG
	474	 31.2	 -1.5	 10.0	 -13.0	 1.015335	 100.0	 1	 52.0	 10.4; % NG
	1221	 34.8	 0.0	 35.0	 -35.0	 1.0	 100.0	 1	 58.0	 11.6; % PEL
	355	 37.2	 0.0	 40.0	 -40.0	 1.0	 100.0	 1	 62.0	 12.4; % NG
	471	 46.8	 0.5	 1.0	 0.0	 1.017105	 100.0	 1	 78.0	 15.6; % NG
	1321	 6.6	 0.95	 1.0	 0.9	 1.004235	 100.0	 1	 11.0	 2.2; % NG
	1321	 1.25	 0.0	 0.1	 -0.1	 1.004235	 100.0	 1	 2.5	 0.0; % PEL
	1829	 14.1	 0.0	 8.0	 -8.0	 1.014295	 100.0	 1	 23.5	 4.7; % NG
	1005	 23.4	 0.0	 19.0	 -19.0	 1.00521	 100.0	 1	 39.0	 7.8; % PEL
	14	 16.56	 0.0	 0.0	 0.0	 1.01626	 100.0	 1	 27.6	 5.52; % PEL
	14	 14.4	 0.0	 0.0	 0.0	 1.01626	 100.0	 1	 24.0	 4.8; % PEL
	1628	 435.0	 -31.125	 155.3	 -217.55	 1.0	 100.0	 1	 670.0	 200.0; % NUC
	1629	 420.0	 20.405	 231.39	 -190.58	 1.0	 100.0	 1	 700.0	 140.0; % PEL
	1844	 16.2	 4.62	 24.62	 -15.38	 1.0077585	 100.0	 1	 27.0	 5.4; % NG
	1630	 51.6	 17.68	 43.86	 -8.5	 0.9887625	 100.0	 1	 86.0	 17.2; % NG
	1631	 29.4	 6.23	 22.19	 -9.73	 0.989957	 100.0	 1	 49.0	 9.8; % NG
	1846	 19.2	 0.0	 8.36	 -8.36	 1.0	 100.0	 1	 32.0	 6.4; % PEL
	1632	 19.2	 0.0	 8.36	 -8.36	 1.0	 100.0	 1	 32.0	 6.4; % PEL
	1847	 19.2	 -0.21	 8.15	 -8.57	 1.0	 100.0	 1	 32.0	 6.4; % PEL
	1848	 19.2	 -0.21	 8.15	 -8.57	 1.0	 100.0	 1	 32.0	 6.4; % NG
	1852	 55.2	 9.57	 54.57	 -35.43	 1.0	 100.0	 1	 92.0	 18.4; % NG
	1854	 55.2	 11.48	 56.48	 -33.52	 1.0	 100.0	 1	 92.0	 18.4; % NG
	1633	 600.075	 22.385	 421.39	 -376.62	 1.001355	 100.0	 1	 945.08	 255.07; % NUC
	1634	 633.045	 29.81	 428.83	 -369.21	 1.000525	 100.0	 1	 978.04	 288.05; % COW
	1635	 616.08	 29.075	 428.07	 -369.92	 1.00053	 100.0	 1	 976.08	 256.08; % COW
	1636	 598.075	 21.865	 420.86	 -377.13	 1.0	 100.0	 1	 943.08	 253.07; % COW
	1637	 204.0	 31.4	 153.03	 -90.23	 1.0	 100.0	 1	 252.0	 156.0; % NG
	1638	 202.0	 30.815	 152.44	 -90.81	 1.0	 100.0	 1	 250.0	 154.0; % NG
	1639	 202.0	 23.7	 105.68	 -58.28	 1.0	 100.0	 1	 250.0	 154.0; % NG
	1640	 213.5	 34.45	 228.81	 -159.91	 1.0	 100.0	 1	 305.0	 122.0; % NG
	1641	 122.0	 9.84	 94.32	 -74.64	 1.003735	 100.0	 1	 155.0	 89.0; % NG
	1642	 34.8	 1.44	 21.65	 -18.77	 1.0	 100.0	 1	 58.0	 11.6; % PEL
	1643	 34.8	 2.675	 16.01	 -10.66	 1.0	 100.0	 1	 58.0	 11.6; % PEL
	1855	 34.8	 1.26	 21.47	 -18.95	 1.0	 100.0	 1	 58.0	 11.6; % PEL
	1644	 34.8	 2.715	 16.05	 -10.62	 1.0	 100.0	 1	 58.0	 11.6; % COW
	1645	 34.8	 2.475	 15.81	 -10.86	 1.0	 100.0	 1	 58.0	 11.6; % NG
	1646	 198.0	 28.135	 146.45	 -90.18	 1.00036	 100.0	 1	 263.0	 133.0; % NG
	1647	 26.975	 6.29	 50.67	 -38.09	 1.0	 100.0	 1	 44.96	 8.99; % NG
	1861	 19.2	 1.75	 19.75	 -16.25	 1.0	 100.0	 1	 32.0	 6.4; % PEL
	1648	 601.29	 186.38	 530.99	 -158.23	 0.990834	 100.0	 1	 936.29	 266.29; % COW
	1649	 607.82	 188.81	 533.69	 -156.07	 0.9895395	 100.0	 1	 942.82	 272.82; % COW
	1650	 599.28	 192.43	 537.68	 -152.82	 0.9875395	 100.0	 1	 924.28	 274.28; % COW
	1651	 597.8	 184.5	 529.89	 -160.89	 0.994603	 100.0	 1	 922.8	 272.8; % COW
	1652	 813.0	 264.02	 681.04	 -153.0	 0.9975895	 100.0	 1	 1308.0	 318.0; % NUC
	1862	 813.0	 264.015	 681.03	 -153.0	 0.99881	 100.0	 1	 1308.0	 318.0; % COW
	1653	 21.0	 2.08	 6.08	 -1.92	 1.0	 100.0	 1	 35.0	 7.0; % PEL
	1654	 21.0	 2.21	 6.21	 -1.79	 1.0	 100.0	 1	 35.0	 7.0; % PEL
	1655	 21.0	 2.21	 6.21	 -1.79	 1.0	 100.0	 1	 35.0	 7.0; % NG
	1656	 21.0	 2.11	 6.11	 -1.89	 1.0	 100.0	 1	 35.0	 7.0; % PEL
	1657	 21.0	 2.11	 6.11	 -1.89	 1.0	 100.0	 1	 35.0	 7.0; % NG
	1658	 21.0	 2.11	 6.11	 -1.89	 1.0	 100.0	 1	 35.0	 7.0; % NG
	1863	 22.18	 2.645	 18.45	 -13.16	 1.0	 100.0	 1	 36.97	 7.39; % NG
	1659	 22.18	 2.645	 18.45	 -13.16	 1.0	 100.0	 1	 36.97	 7.39; % PEL
	1660	 22.18	 3.55	 18.45	 -11.35	 1.0	 100.0	 1	 36.97	 7.39; % NG
	1661	 22.18	 3.205	 18.11	 -11.7	 1.0	 100.0	 1	 36.97	 7.39; % NG
	1662	 22.18	 2.4	 18.21	 -13.41	 1.0	 100.0	 1	 36.97	 7.39; % PEL
	1663	 22.18	 2.75	 18.55	 -13.05	 1.0	 100.0	 1	 36.97	 7.39; % NG
	1865	 12.0	 2.32	 12.32	 -7.68	 1.0	 100.0	 1	 20.0	 4.0; % NG
	1866	 18.59	 2.03	 17.85	 -13.79	 1.0	 100.0	 1	 30.98	 6.2; % PEL
	1664	 18.59	 2.03	 17.85	 -13.79	 1.0	 100.0	 1	 30.98	 6.2; % COW
	1665	 18.59	 2.195	 18.01	 -13.62	 1.0	 100.0	 1	 30.98	 6.2; % NG
	1867	 18.59	 2.195	 18.01	 -13.62	 1.0	 100.0	 1	 30.98	 6.2; % NG
	1666	 18.59	 2.07	 17.89	 -13.75	 1.0	 100.0	 1	 30.98	 6.2; % NG
	1868	 18.59	 1.915	 17.74	 -13.91	 1.0	 100.0	 1	 30.98	 6.2; % PEL
	1667	 833.5	 235.585	 656.06	 -184.89	 0.996488	 100.0	 1	 1330.0	 337.0; % COW
	1668	 863.5	 236.51	 656.92	 -183.9	 0.995021	 100.0	 1	 1360.0	 367.0; % COW
	1669	 863.5	 227.615	 648.03	 -192.8	 0.993275	 100.0	 1	 1360.0	 367.0; % NUC
	1670	 1.45	 88.775	 281.46	 -103.91	 1.0094195	 100.0	 1	 1.5	 1.4; % PEL
	1873	 144.0	 24.03	 94.03	 -45.97	 1.0	 100.0	 1	 240.0	 48.0; % NG
	1874	 144.0	 25.11	 95.11	 -44.89	 1.0	 100.0	 1	 240.0	 48.0; % NG
	1671	 587.72	 208.7	 524.6	 -107.2	 1.0	 100.0	 1	 942.72	 232.72; % NUC
	1673	 598.74	 206.28	 511.64	 -99.08	 1.0	 100.0	 1	 953.74	 243.74; % COW
	1674	 597.74	 228.045	 555.41	 -99.32	 0.9995685	 100.0	 1	 952.74	 242.74; % NG
	1675	 953.0	 277.96	 682.28	 -126.36	 0.9996345	 100.0	 1	 1503.0	 403.0; % COW
	1676	 953.0	 282.755	 687.17	 -121.66	 1.00522	 100.0	 1	 1503.0	 403.0; % COW
	1875	 948.0	 28.58	 409.45	 -352.29	 1.0	 100.0	 1	 1498.0	 398.0; % COW
	1677	 948.0	 28.545	 409.42	 -352.33	 1.0	 100.0	 1	 1498.0	 398.0; % COW
	2022	 45.0	 6.72	 51.88	 -38.44	 1.0	 100.0	 1	 75.0	 15.0; % COW
	1876	 45.0	 6.72	 51.88	 -38.44	 1.0	 100.0	 1	 75.0	 15.0; % PEL
	1877	 45.0	 6.72	 51.88	 -38.44	 1.0	 100.0	 1	 75.0	 15.0; % COW
	1878	 45.0	 6.72	 51.88	 -38.44	 1.0	 100.0	 1	 75.0	 15.0; % NG
	1678	 51.75	 21.36	 104.12	 -61.4	 1.0	 100.0	 1	 95.0	 8.5; % NG
	1679	 51.75	 21.18	 103.94	 -61.58	 1.0	 100.0	 1	 95.0	 8.5; % NG
	1680	 76.2	 38.01	 86.67	 -10.65	 1.0	 100.0	 1	 148.2	 4.2; % NG
	1681	 432.5	 80.525	 220.22	 -59.17	 1.0	 100.0	 1	 685.0	 180.0; % COW
	1682	 460.0	 82.52	 330.28	 -165.24	 0.9802185	 100.0	 1	 610.0	 310.0; % COW
	1683	 460.0	 52.92	 297.67	 -191.83	 0.980023	 100.0	 1	 610.0	 310.0; % NUC
	1684	 452.5	 -19.415	 254.82	 -293.65	 1.0	 100.0	 1	 700.0	 205.0; % COW
	1881	 30.0	 0.9	 15.6	 -13.8	 1.0	 100.0	 1	 50.0	 10.0; % NG
	1882	 30.0	 0.5	 15.2	 -14.2	 1.0	 100.0	 1	 50.0	 10.0; % NG
	1685	 30.0	 1.105	 15.81	 -13.6	 1.0	 100.0	 1	 50.0	 10.0; % NG
	1883	 30.0	 1.105	 15.81	 -13.6	 1.0	 100.0	 1	 50.0	 10.0; % NG
	1884	 30.0	 1.105	 15.81	 -13.6	 1.0	 100.0	 1	 50.0	 10.0; % NG
	1885	 30.0	 0.9	 15.6	 -13.8	 1.0	 100.0	 1	 50.0	 10.0; % COW
	1686	 640.0	 221.385	 532.91	 -90.14	 1.0	 100.0	 1	 1000.0	 280.0; % COW
	1687	 640.0	 223.92	 535.45	 -87.61	 1.0	 100.0	 1	 1000.0	 280.0; % COW
	1688	 640.0	 239.705	 567.71	 -88.3	 1.0	 100.0	 1	 1000.0	 280.0; % NG
	1689	 0.0	 0.0	 559.16	 -96.85	 1.0	 100.0	 0	 930.0	 280.0; % NUC
	1888	 34.2	 0.0	 17.35	 -17.35	 1.0	 100.0	 1	 57.0	 11.4; % NG
	1690	 345.0	 32.025	 219.77	 -155.72	 0.9858785	 100.0	 1	 451.0	 239.0; % COW
	1691	 42.0	 20.31	 51.25	 -10.63	 1.0	 100.0	 1	 63.0	 21.0; % NG
	1692	 341.3	 37.96	 258.1	 -182.18	 1.01132	 100.0	 1	 433.8	 248.8; % COW
	1693	 124.99	 13.48	 71.21	 -44.25	 1.0	 100.0	 1	 168.17	 81.81; % NG
	1694	 125.44	 17.825	 73.34	 -37.69	 1.0	 100.0	 1	 168.6	 82.28; % NG
	1695	 151.06	 34.915	 113.53	 -43.7	 1.0	 100.0	 1	 248.21	 53.91; % NG
	1696	 141.03	 20.78	 100.92	 -59.36	 1.0	 100.0	 1	 238.09	 43.97; % COW
	1697	 574.69	 218.265	 525.14	 -88.61	 1.0	 100.0	 1	 919.69	 229.69; % COW
	1698	 574.69	 218.265	 525.14	 -88.61	 1.0	 100.0	 1	 919.69	 229.69; % NG
	1699	 581.69	 219.89	 526.77	 -86.99	 1.0	 100.0	 1	 926.69	 236.69; % COW
	1700	 596.69	 223.405	 530.29	 -83.48	 1.0	 100.0	 1	 941.69	 251.69; % COW
	1701	 19.2	 0.32	 10.32	 -9.68	 1.0	 100.0	 1	 32.0	 6.4; % PEL
	1702	 23.93	 0.775	 19.22	 -17.67	 1.0	 100.0	 1	 39.88	 7.98; % NG
	1703	 23.93	 0.8	 19.34	 -17.74	 1.0	 100.0	 1	 39.88	 7.98; % COW
	1889	 23.93	 0.79	 19.24	 -17.66	 1.0	 100.0	 1	 39.88	 7.98; % NG
	1704	 860.0	 0.765	 398.39	 -396.86	 1.0	 100.0	 1	 1380.0	 340.0; % NUC
	1705	 860.0	 -26.54	 371.08	 -424.16	 1.0	 100.0	 1	 1380.0	 340.0; % COW
	1890	 14.4	 1.39	 5.35	 -2.57	 1.0	 100.0	 1	 24.0	 4.8; % NG
	1891	 14.4	 1.525	 5.48	 -2.43	 1.0	 100.0	 1	 24.0	 4.8; % PEL
	1892	 14.4	 1.035	 5.0	 -2.93	 1.0	 100.0	 1	 24.0	 4.8; % PEL
	1706	 14.4	 1.33	 5.29	 -2.63	 1.0	 100.0	 1	 24.0	 4.8; % PEL
	1707	 14.395	 2.51	 10.0	 -4.98	 1.0	 100.0	 1	 23.99	 4.8; % PEL
	2026	 14.395	 0.735	 8.26	 -6.79	 1.0	 100.0	 1	 23.99	 4.8; % PEL
	1898	 14.395	 2.685	 10.17	 -4.8	 1.0	 100.0	 1	 23.99	 4.8; % PEL
	1708	 14.395	 1.805	 1.81	 1.8	 1.0	 100.0	 1	 23.99	 4.8; % NG
	1709	 14.395	 2.675	 10.16	 -4.81	 1.0	 100.0	 1	 23.99	 4.8; % PEL
	1710	 17.39	 2.34	 12.23	 -7.55	 1.0	 100.0	 1	 28.98	 5.8; % NG
	1711	 17.39	 2.425	 12.31	 -7.46	 1.0	 100.0	 1	 28.98	 5.8; % PEL
	1712	 798.0	 87.935	 615.09	 -439.22	 1.0	 100.0	 1	 1308.0	 288.0; % NG
	1713	 798.0	 87.48	 614.63	 -439.67	 1.001985	 100.0	 1	 1308.0	 288.0; % COW
	1714	 273.76	 85.9	 255.9	 -84.1	 1.01466	 100.0	 1	 458.26	 89.26; % NG
	1715	 592.0	 213.325	 524.88	 -98.23	 1.0	 100.0	 1	 947.0	 237.0; % COW
	1716	 607.0	 216.68	 528.27	 -94.91	 1.0	 100.0	 1	 947.0	 267.0; % COW
	1717	 592.0	 217.915	 529.5	 -93.67	 0.993595	 100.0	 1	 947.0	 237.0; % COW
	1718	 592.0	 217.03	 528.59	 -94.53	 0.9987595	 100.0	 1	 947.0	 237.0; % NUC
	1719	 592.0	 217.94	 529.53	 -93.65	 1.0	 100.0	 1	 947.0	 237.0; % COW
	1720	 592.0	 192.575	 504.13	 -118.98	 1.0	 100.0	 1	 947.0	 237.0; % COW
	1721	 182.5	 33.75	 104.81	 -37.31	 1.0	 100.0	 1	 240.0	 125.0; % NG
	1906	 101.64	 -3.68	 69.06	 -76.42	 1.0	 100.0	 1	 169.4	 33.88; % NG
	1907	 101.64	 -3.71	 69.08	 -76.5	 1.0	 100.0	 1	 169.4	 33.88; % COW
	1908	 101.64	 -3.785	 68.92	 -76.49	 1.0	 100.0	 1	 169.4	 33.88; % NG
	1909	 101.64	 -3.86	 68.97	 -76.69	 1.0	 100.0	 1	 169.4	 33.88; % NG
	1910	 101.64	 -3.74	 69.1	 -76.58	 1.0	 100.0	 1	 169.4	 33.88; % NG
	1911	 101.64	 -3.72	 69.1	 -76.54	 1.0	 100.0	 1	 169.4	 33.88; % PEL
	1912	 101.64	 -4.09	 68.67	 -76.85	 1.0	 100.0	 1	 169.4	 33.88; % COW
	1913	 101.64	 -4.115	 68.69	 -76.92	 1.0	 100.0	 1	 169.4	 33.88; % COW
	1722	 336.8	 72.9	 272.9	 -127.1	 1.0	 100.0	 1	 456.8	 216.8; % COW
	1723	 195.0	 39.71	 159.71	 -80.29	 1.005505	 100.0	 1	 260.0	 130.0; % NG
	1724	 0.0	 0.0	 198.66	 -190.41	 1.0	 100.0	 0	 585.0	 250.0; % NG
	1725	 417.5	 4.815	 199.31	 -189.68	 1.0	 100.0	 1	 585.0	 250.0; % COW
	1919	 11.99	 0.745	 20.64	 -19.15	 1.0	 100.0	 1	 19.98	 4.0; % NG
	1920	 14.39	 0.525	 20.43	 -19.38	 1.0	 100.0	 1	 23.98	 4.8; % PEL
	1921	 14.39	 1.17	 21.0	 -18.66	 1.0	 100.0	 1	 23.98	 4.8; % PEL
	1922	 14.39	 0.865	 20.73	 -19.0	 1.0	 100.0	 1	 23.98	 4.8; % PEL
	1923	 14.39	 1.445	 21.26	 -18.37	 1.003055	 100.0	 1	 23.98	 4.8; % NG
	1924	 14.39	 1.445	 21.26	 -18.37	 1.000705	 100.0	 1	 23.98	 4.8; % PEL
	1726	 21.0	 0.48	 9.31	 -8.35	 1.0	 100.0	 1	 35.0	 7.0; % PEL
	1727	 21.0	 0.29	 9.12	 -8.54	 1.0	 100.0	 1	 35.0	 7.0; % NG
	1728	 21.0	 -1.465	 10.16	 -13.09	 1.0	 100.0	 1	 35.0	 7.0; % NG
	1928	 21.0	 0.48	 9.31	 -8.35	 1.0	 100.0	 1	 35.0	 7.0; % PEL
	1729	 177.5	 -20.12	 104.52	 -144.76	 0.9963875	 100.0	 1	 235.0	 120.0; % COW
	1931	 43.8	 5.56	 47.31	 -36.19	 1.0	 100.0	 1	 73.0	 14.6; % NG
	1932	 41.4	 9.295	 51.14	 -32.55	 0.9964755	 100.0	 1	 69.0	 13.8; % NG
...
];

%% generator cost data
%	2	startup	shutdown	n	c(n-1)	...	c0
mpc.gencost = [
2	0.0	0.0	3	0.2	36.879614	0.000000;	%	NG
2	0.0	0.0	3	0.2	102.818703	0.000000;	%	PEL
2	0.0	0.0	3	0.2	123.867753	0.000000;	%	PEL
2	0.0	0.0	3	0.2	106.230210	0.000000;	%	PEL
2	0.0	0.0	3	0.2	111.337642	0.000000;	%	PEL
2	0.0	0.0	3	0.2	37.203873	0.000000;	%	NG
2	0.0	0.0	3	0.2	49.778795	0.000000;	%	NG
2	0.0	0.0	3	0.2	27.586445	0.000000;	%	COW
2	0.0	0.0	3	0.2	21.586989	0.000000;	%	NG
2	0.0	0.0	3	0.2	102.922605	0.000000;	%	PEL
2	0.0	0.0	3	0.2	23.347606	0.000000;	%	COW
2	0.0	0.0	3	0.2	110.721100	0.000000;	%	PEL
2	0.0	0.0	3	0.2	26.419861	0.000000;	%	NG
2	0.0	0.0	3	0.2	30.601438	0.000000;	%	NG
2	0.0	0.0	3	0.2	42.569564	0.000000;	%	NG
2	0.0	0.0	3	0.2	22.993553	0.000000;	%	NG
2	0.0	0.0	3	0.2	45.335599	0.000000;	%	NG
2	0.0	0.0	3	0.2	34.937230	0.000000;	%	COW
2	0.0	0.0	3	0.2	30.757753	0.000000;	%	NG
2	0.0	0.0	3	0.2	30.622515	0.000000;	%	NG
2	0.0	0.0	3	0.2	46.406787	0.000000;	%	NG
2	0.0	0.0	3	0.2	31.911806	0.000000;	%	NG
2	0.0	0.0	3	0.2	31.483516	0.000000;	%	NG
2	0.0	0.0	3	0.2	31.323377	0.000000;	%	NG
2	0.0	0.0	3	0.2	30.744730	0.000000;	%	NG
2	0.0	0.0	3	0.2	13.975616	0.000000;	%	COW
2	0.0	0.0	3	0.2	48.070538	0.000000;	%	COW
2	0.0	0.0	3	0.2	111.022896	0.000000;	%	PEL
2	0.0	0.0	3	0.2	44.772489	0.000000;	%	NG
2	0.0	0.0	3	0.2	43.154786	0.000000;	%	NG
2	0.0	0.0	3	0.2	39.003663	0.000000;	%	NG
2	0.0	0.0	3	0.2	29.811093	0.000000;	%	NG
	2	 0.0	 0.0	 3	   0.000000	   0.000000	   0.000000; % SYNC
2	0.0	0.0	3	0.2	34.301794	0.000000;	%	NG
2	0.0	0.0	3	0.2	44.860956	0.000000;	%	NG
2	0.0	0.0	3	0.2	120.918113	0.000000;	%	PEL
2	0.0	0.0	3	0.2	24.962467	0.000000;	%	NG
2	0.0	0.0	3	0.2	32.859582	0.000000;	%	NG
2	0.0	0.0	3	0.2	41.589808	0.000000;	%	NG
2	0.0	0.0	3	0.2	35.660132	0.000000;	%	NG
2	0.0	0.0	3	0.2	89.794302	0.000000;	%	PEL
2	0.0	0.0	3	0.2	32.095030	0.000000;	%	NG
2	0.0	0.0	3	0.2	34.473234	0.000000;	%	NG
2	0.0	0.0	3	0.2	43.179533	0.000000;	%	NG
2	0.0	0.0	3	0.2	106.557899	0.000000;	%	PEL
2	0.0	0.0	3	0.2	14.407526	0.000000;	%	NG
2	0.0	0.0	3	0.2	119.630609	0.000000;	%	PEL
2	0.0	0.0	3	0.2	116.533424	0.000000;	%	PEL
2	0.0	0.0	3	0.2	126.010118	0.000000;	%	PEL
2	0.0	0.0	3	0.2	6.745408	0.000000;	%	NUC
2	0.0	0.0	3	0.2	107.069234	0.000000;	%	PEL
2	0.0	0.0	3	0.2	29.420074	0.000000;	%	NG
2	0.0	0.0	3	0.2	31.885121	0.000000;	%	NG
2	0.0	0.0	3	0.2	35.833663	0.000000;	%	NG
2	0.0	0.0	3	0.2	119.431558	0.000000;	%	PEL
2	0.0	0.0	3	0.2	121.989784	0.000000;	%	PEL
2	0.0	0.0	3	0.2	104.195581	0.000000;	%	PEL
2	0.0	0.0	3	0.2	65.052207	0.000000;	%	NG
2	0.0	0.0	3	0.2	44.924115	0.000000;	%	NG
2	0.0	0.0	3	0.2	42.564627	0.000000;	%	NG
2	0.0	0.0	3	0.2	6.450082	0.000000;	%	NUC
2	0.0	0.0	3	0.2	24.823632	0.000000;	%	COW
2	0.0	0.0	3	0.2	30.414781	0.000000;	%	COW
2	0.0	0.0	3	0.2	31.215842	0.000000;	%	COW
2	0.0	0.0	3	0.2	33.015136	0.000000;	%	NG
2	0.0	0.0	3	0.2	31.598869	0.000000;	%	NG
2	0.0	0.0	3	0.2	28.829022	0.000000;	%	NG
2	0.0	0.0	3	0.2	20.078606	0.000000;	%	NG
2	0.0	0.0	3	0.2	50.521495	0.000000;	%	NG
2	0.0	0.0	3	0.2	95.047113	0.000000;	%	PEL
2	0.0	0.0	3	0.2	114.295845	0.000000;	%	PEL
2	0.0	0.0	3	0.2	103.134064	0.000000;	%	PEL
2	0.0	0.0	3	0.2	30.579540	0.000000;	%	COW
2	0.0	0.0	3	0.2	20.312818	0.000000;	%	NG
2	0.0	0.0	3	0.2	44.670303	0.000000;	%	NG
2	0.0	0.0	3	0.2	43.533901	0.000000;	%	NG
2	0.0	0.0	3	0.2	106.652079	0.000000;	%	PEL
2	0.0	0.0	3	0.2	25.143778	0.000000;	%	COW
2	0.0	0.0	3	0.2	18.119992	0.000000;	%	COW
2	0.0	0.0	3	0.2	28.421775	0.000000;	%	COW
2	0.0	0.0	3	0.2	15.660903	0.000000;	%	COW
2	0.0	0.0	3	0.2	5.667664	0.000000;	%	NUC
2	0.0	0.0	3	0.2	19.797917	0.000000;	%	COW
2	0.0	0.0	3	0.2	109.357263	0.000000;	%	PEL
2	0.0	0.0	3	0.2	116.925701	0.000000;	%	PEL
2	0.0	0.0	3	0.2	38.911893	0.000000;	%	NG
2	0.0	0.0	3	0.2	103.504481	0.000000;	%	PEL
2	0.0	0.0	3	0.2	29.879728	0.000000;	%	NG
2	0.0	0.0	3	0.2	54.667442	0.000000;	%	NG
2	0.0	0.0	3	0.2	35.644799	0.000000;	%	NG
2	0.0	0.0	3	0.2	100.151990	0.000000;	%	PEL
2	0.0	0.0	3	0.2	53.625088	0.000000;	%	NG
2	0.0	0.0	3	0.2	30.773174	0.000000;	%	NG
2	0.0	0.0	3	0.2	129.451325	0.000000;	%	PEL
2	0.0	0.0	3	0.2	45.436313	0.000000;	%	NG
2	0.0	0.0	3	0.2	39.091670	0.000000;	%	NG
2	0.0	0.0	3	0.2	99.401859	0.000000;	%	PEL
2	0.0	0.0	3	0.2	21.662259	0.000000;	%	COW
2	0.0	0.0	3	0.2	45.541664	0.000000;	%	NG
2	0.0	0.0	3	0.2	49.469415	0.000000;	%	NG
2	0.0	0.0	3	0.2	32.311689	0.000000;	%	NG
2	0.0	0.0	3	0.2	119.347719	0.000000;	%	PEL
2	0.0	0.0	3	0.2	23.547369	0.000000;	%	COW
2	0.0	0.0	3	0.2	2.859808	0.000000;	%	COW
2	0.0	0.0	3	0.2	6.864972	0.000000;	%	NUC
2	0.0	0.0	3	0.2	99.497152	0.000000;	%	PEL
2	0.0	0.0	3	0.2	31.789207	0.000000;	%	NG
2	0.0	0.0	3	0.2	32.540539	0.000000;	%	NG
2	0.0	0.0	3	0.2	6.793600	0.000000;	%	NUC
2	0.0	0.0	3	0.2	34.083995	0.000000;	%	COW
2	0.0	0.0	3	0.2	54.297341	0.000000;	%	NG
2	0.0	0.0	3	0.2	25.405366	0.000000;	%	COW
2	0.0	0.0	3	0.2	26.762535	0.000000;	%	COW
2	0.0	0.0	3	0.2	27.545621	0.000000;	%	COW
2	0.0	0.0	3	0.2	33.616738	0.000000;	%	COW
2	0.0	0.0	3	0.2	37.617069	0.000000;	%	COW
2	0.0	0.0	3	0.2	107.884528	0.000000;	%	PEL
2	0.0	0.0	3	0.2	19.721211	0.000000;	%	COW
2	0.0	0.0	3	0.2	25.911063	0.000000;	%	NG
2	0.0	0.0	3	0.2	24.383565	0.000000;	%	NG
2	0.0	0.0	3	0.2	45.281971	0.000000;	%	NG
2	0.0	0.0	3	0.2	30.253167	0.000000;	%	NG
2	0.0	0.0	3	0.2	25.853896	0.000000;	%	COW
2	0.0	0.0	3	0.2	23.384789	0.000000;	%	COW
2	0.0	0.0	3	0.2	6.758840	0.000000;	%	NUC
2	0.0	0.0	3	0.2	24.457229	0.000000;	%	COW
2	0.0	0.0	3	0.2	28.314700	0.000000;	%	NG
2	0.0	0.0	3	0.2	29.429072	0.000000;	%	NG
2	0.0	0.0	3	0.2	20.273721	0.000000;	%	NG
2	0.0	0.0	3	0.2	48.176458	0.000000;	%	NG
2	0.0	0.0	3	0.2	34.299742	0.000000;	%	NG
2	0.0	0.0	3	0.2	17.076737	0.000000;	%	COW
2	0.0	0.0	3	0.2	16.588831	0.000000;	%	COW
2	0.0	0.0	3	0.2	19.318277	0.000000;	%	COW
2	0.0	0.0	3	0.2	18.680412	0.000000;	%	NG
2	0.0	0.0	3	0.2	6.633383	0.000000;	%	NUC
2	0.0	0.0	3	0.2	41.475369	0.000000;	%	NG
2	0.0	0.0	3	0.2	32.079350	0.000000;	%	COW
2	0.0	0.0	3	0.2	37.665860	0.000000;	%	NG
2	0.0	0.0	3	0.2	22.878714	0.000000;	%	COW
2	0.0	0.0	3	0.2	28.952303	0.000000;	%	NG
2	0.0	0.0	3	0.2	40.359034	0.000000;	%	NG
2	0.0	0.0	3	0.2	34.353015	0.000000;	%	NG
2	0.0	0.0	3	0.2	27.111097	0.000000;	%	COW
2	0.0	0.0	3	0.2	41.652275	0.000000;	%	COW
2	0.0	0.0	3	0.2	27.441246	0.000000;	%	NG
2	0.0	0.0	3	0.2	37.797956	0.000000;	%	COW
2	0.0	0.0	3	0.2	13.786673	0.000000;	%	COW
2	0.0	0.0	3	0.2	112.501633	0.000000;	%	PEL
2	0.0	0.0	3	0.2	45.184068	0.000000;	%	NG
2	0.0	0.0	3	0.2	35.242997	0.000000;	%	COW
2	0.0	0.0	3	0.2	29.732720	0.000000;	%	NG
2	0.0	0.0	3	0.2	7.072944	0.000000;	%	NUC
2	0.0	0.0	3	0.2	7.190143	0.000000;	%	COW
2	0.0	0.0	3	0.2	29.024814	0.000000;	%	NG
2	0.0	0.0	3	0.2	111.973759	0.000000;	%	PEL
2	0.0	0.0	3	0.2	121.864221	0.000000;	%	PEL
2	0.0	0.0	3	0.2	123.841827	0.000000;	%	PEL
2	0.0	0.0	3	0.2	106.668799	0.000000;	%	PEL
2	0.0	0.0	3	0.2	97.191384	0.000000;	%	PEL
2	0.0	0.0	3	0.2	101.011895	0.000000;	%	PEL
2	0.0	0.0	3	0.2	43.474735	0.000000;	%	NG
2	0.0	0.0	3	0.2	114.499177	0.000000;	%	PEL
2	0.0	0.0	3	0.2	34.889776	0.000000;	%	NG
2	0.0	0.0	3	0.2	111.696301	0.000000;	%	PEL
2	0.0	0.0	3	0.2	27.980534	0.000000;	%	NG
2	0.0	0.0	3	0.2	30.408853	0.000000;	%	COW
2	0.0	0.0	3	0.2	22.166895	0.000000;	%	NG
2	0.0	0.0	3	0.2	32.130730	0.000000;	%	COW
2	0.0	0.0	3	0.2	22.139349	0.000000;	%	COW
2	0.0	0.0	3	0.2	35.693046	0.000000;	%	COW
2	0.0	0.0	3	0.2	6.813815	0.000000;	%	NUC
2	0.0	0.0	3	0.2	25.239496	0.000000;	%	COW
2	0.0	0.0	3	0.2	24.058610	0.000000;	%	COW
2	0.0	0.0	3	0.2	52.977338	0.000000;	%	NG
2	0.0	0.0	3	0.2	22.002061	0.000000;	%	NG
2	0.0	0.0	3	0.2	32.412444	0.000000;	%	COW
2	0.0	0.0	3	0.2	38.385621	0.000000;	%	NG
2	0.0	0.0	3	0.2	23.937604	0.000000;	%	NG
2	0.0	0.0	3	0.2	40.588644	0.000000;	%	NG
2	0.0	0.0	3	0.2	121.788286	0.000000;	%	PEL
2	0.0	0.0	3	0.2	22.180489	0.000000;	%	COW
2	0.0	0.0	3	0.2	15.118668	0.000000;	%	COW
2	0.0	0.0	3	0.2	19.235965	0.000000;	%	COW
2	0.0	0.0	3	0.2	41.308627	0.000000;	%	NG
2	0.0	0.0	3	0.2	43.331328	0.000000;	%	NG
2	0.0	0.0	3	0.2	32.923634	0.000000;	%	COW
2	0.0	0.0	3	0.2	37.787385	0.000000;	%	NG
2	0.0	0.0	3	0.2	115.799925	0.000000;	%	PEL
2	0.0	0.0	3	0.2	125.358723	0.000000;	%	PEL
2	0.0	0.0	3	0.2	106.839232	0.000000;	%	PEL
2	0.0	0.0	3	0.2	37.470049	0.000000;	%	NG
2	0.0	0.0	3	0.2	113.967568	0.000000;	%	PEL
2	0.0	0.0	3	0.2	115.113942	0.000000;	%	PEL
2	0.0	0.0	3	0.2	25.222493	0.000000;	%	NG
2	0.0	0.0	3	0.2	13.647219	0.000000;	%	NG
2	0.0	0.0	3	0.2	103.342463	0.000000;	%	PEL
2	0.0	0.0	3	0.2	38.215685	0.000000;	%	COW
2	0.0	0.0	3	0.2	48.344191	0.000000;	%	NG
2	0.0	0.0	3	0.2	27.309325	0.000000;	%	NG
...
];

%% storage data
%	bus	energy	energy_rating	charge_rating	discharge_rating	thermal_rating	qmin	qmax	r	x	standby_loss	status
mpc.storage = [
	1820	0.0	0.0	1.00	1065.7500	532.8750	383.6700	0.9	0.85	1000	-1000	1000	0.1	0.01	0	0	1;
	1804	0.0	0.0	1.00	1022.8500	511.4250	368.2260	0.9	0.85	1000	-1000	1000	0.1	0.01	0	0	1;
	1798	0.0	0.0	1.00	1016.4000	508.2000	365.9040	0.9	0.85	1000	-1000	1000	0.1	0.01	0	0	1;
	1816	0.0	0.0	1.00	780.1500	390.0750	280.8540	0.9	0.85	1000	-1000	1000	0.1	0.01	0	0	1;
	1795	0.0	0.0	1.00	773.5500	386.7750	278.4780	0.9	0.85	1000	-1000	1000	0.1	0.01	0	0	1;
	1796	0.0	0.0	1.00	769.0500	384.5250	276.8580	0.9	0.85	1000	-1000	1000	0.1	0.01	0	0	1;
	1806	0.0	0.0	1.00	756.0000	378.0000	272.1600	0.9	0.85	1000	-1000	1000	0.1	0.01	0	0	1;
	1811	0.0	0.0	1.00	650.7000	325.3500	234.2520	0.9	0.85	1000	-1000	1000	0.1	0.01	0	0	1;
	618	0.0	0.0	1.00	614.1000	307.0500	221.0760	0.9	0.85	1000	-1000	1000	0.1	0.01	0	0	1;
	1826	0.0	0.0	1.00	597.1500	298.5750	214.9740	0.9	0.85	1000	-1000	1000	0.1	0.01	0	0	1;
	1819	0.0	0.0	1.00	585.6000	292.8000	210.8160	0.9	0.85	1000	-1000	1000	0.1	0.01	0	0	1;
	1800	0.0	0.0	1.00	535.8000	267.9000	192.8880	0.9	0.85	1000	-1000	1000	0.1	0.01	0	0	1;
	1825	0.0	0.0	1.00	534.4500	267.2250	192.4020	0.9	0.85	1000	-1000	1000	0.1	0.01	0	0	1;
	1817	0.0	0.0	1.00	526.8000	263.4000	189.6480	0.9	0.85	1000	-1000	1000	0.1	0.01	0	0	1;
	1803	0.0	0.0	1.00	515.4000	257.7000	185.5440	0.9	0.85	1000	-1000	1000	0.1	0.01	0	0	1;
	1822	0.0	0.0	1.00	495.0000	247.5000	178.2000	0.9	0.85	1000	-1000	1000	0.1	0.01	0	0	1;
	977	0.0	0.0	1.00	439.8000	219.9000	158.3280	0.9	0.85	1000	-1000	1000	0.1	0.01	0	0	1;
	1815	0.0	0.0	1.00	423.3000	211.6500	152.3880	0.9	0.85	1000	-1000	1000	0.1	0.01	0	0	1;
	1801	0.0	0.0	1.00	384.0000	192.0000	138.2400	0.9	0.85	1000	-1000	1000	0.1	0.01	0	0	1;
	1802	0.0	0.0	1.00	380.2500	190.1250	136.8900	0.9	0.85	1000	-1000	1000	0.1	0.01	0	0	1;
	267	0.0	0.0	1.00	375.9000	187.9500	135.3240	0.9	0.85	1000	-1000	1000	0.1	0.01	0	0	1;
	1285	0.0	0.0	1.00	375.6000	187.8000	135.2160	0.9	0.85	1000	-1000	1000	0.1	0.01	0	0	1;
	705	0.0	0.0	1.00	370.8000	185.4000	133.4880	0.9	0.85	1000	-1000	1000	0.1	0.01	0	0	1;
	1035	0.0	0.0	1.00	366.7500	183.3750	132.0300	0.9	0.85	1000	-1000	1000	0.1	0.01	0	0	1;
	86	0.0	0.0	1.00	359.7000	179.8500	129.4920	0.9	0.85	1000	-1000	1000	0.1	0.01	0	0	1;
	1814	0.0	0.0	1.00	347.2500	173.6250	125.0100	0.9	0.85	1000	-1000	1000	0.1	0.01	0	0	1;
	846	0.0	0.0	1.00	335.1000	167.5500	120.6360	0.9	0.85	1000	-1000	1000	0.1	0.01	0	0	1;
	1295	0.0	0.0	1.00	333.7500	166.8750	120.1500	0.9	0.85	1000	-1000	1000	0.1	0.01	0	0	1;
	335	0.0	0.0	1.00	328.3500	164.1750	118.2060	0.9	0.85	1000	-1000	1000	0.1	0.01	0	0	1;
	44	0.0	0.0	1.00	317.4000	158.7000	114.2640	0.9	0.85	1000	-1000	1000	0.1	0.01	0	0	1;
	761	0.0	0.0	1.00	316.6500	158.3250	113.9940	0.9	0.85	1000	-1000	1000	0.1	0.01	0	0	1;
	958	0.0	0.0	1.00	315.9000	157.9500	113.7240	0.9	0.85	1000	-1000	1000	0.1	0.01	0	0	1;
	263	0.0	0.0	1.00	312.0000	156.0000	112.3200	0.9	0.85	1000	-1000	1000	0.1	0.01	0	0	1;
	273	0.0	0.0	1.00	304.6500	152.3250	109.6740	0.9	0.85	1000	-1000	1000	0.1	0.01	0	0	1;
	513	0.0	0.0	1.00	299.5500	149.7750	107.8380	0.9	0.85	1000	-1000	1000	0.1	0.01	0	0	1;
	1276	0.0	0.0	1.00	297.7500	148.8750	107.1900	0.9	0.85	1000	-1000	1000	0.1	0.01	0	0	1;
	556	0.0	0.0	1.00	295.6500	147.8250	106.4340	0.9	0.85	1000	-1000	1000	0.1	0.01	0	0	1;
	933	0.0	0.0	1.00	290.2500	145.1250	104.4900	0.9	0.85	1000	-1000	1000	0.1	0.01	0	0	1;
	674	0.0	0.0	1.00	282.4500	141.2250	101.6820	0.9	0.85	1000	-1000	1000	0.1	0.01	0	0	1;
	1199	0.0	0.0	1.00	278.7000	139.3500	100.3320	0.9	0.85	1000	-1000	1000	0.1	0.01	0	0	1;
	1062	0.0	0.0	1.00	276.7500	138.3750	99.6300	0.9	0.85	1000	-1000	1000	0.1	0.01	0	0	1;
	303	0.0	0.0	1.00	276.3000	138.1500	99.4680	0.9	0.85	1000	-1000	1000	0.1	0.01	0	0	1;
	776	0.0	0.0	1.00	276.3000	138.1500	99.4680	0.9	0.85	1000	-1000	1000	0.1	0.01	0	0	1;
	569	0.0	0.0	1.00	273.3000	136.6500	98.3880	0.9	0.85	1000	-1000	1000	0.1	0.01	0	0	1;
	698	0.0	0.0	1.00	268.8000	134.4000	96.7680	0.9	0.85	1000	-1000	1000	0.1	0.01	0	0	1;
	199	0.0	0.0	1.00	266.1000	133.0500	95.7960	0.9	0.85	1000	-1000	1000	0.1	0.01	0	0	1;
	473	0.0	0.0	1.00	265.8000	132.9000	95.6880	0.9	0.85	1000	-1000	1000	0.1	0.01	0	0	1;
	938	0.0	0.0	1.00	261.6000	130.8000	94.1760	0.9	0.85	1000	-1000	1000	0.1	0.01	0	0	1;
	209	0.0	0.0	1.00	256.6500	128.3250	92.3940	0.9	0.85	1000	-1000	1000	0.1	0.01	0	0	1;
	741	0.0	0.0	1.00	255.9000	127.9500	92.1240	0.9	0.85	1000	-1000	1000	0.1	0.01	0	0	1;
	972	0.0	0.0	1.00	255.6000	127.8000	92.0160	0.9	0.85	1000	-1000	1000	0.1	0.01	0	0	1;
	1412	0.0	0.0	1.00	255.6000	127.8000	92.0160	0.9	0.85	1000	-1000	1000	0.1	0.01	0	0	1;
	280	0.0	0.0	1.00	254.2500	127.1250	91.5300	0.9	0.85	1000	-1000	1000	0.1	0.01	0	0	1;
	1059	0.0	0.0	1.00	254.2500	127.1250	91.5300	0.9	0.85	1000	-1000	1000	0.1	0.01	0	0	1;
	142	0.0	0.0	1.00	247.8000	123.9000	89.2080	0.9	0.85	1000	-1000	1000	0.1	0.01	0	0	1;
	1389	0.0	0.0	1.00	242.7000	121.3500	87.3720	0.9	0.85	1000	-1000	1000	0.1	0.01	0	0	1;
	1289	0.0	0.0	1.00	241.8000	120.9000	87.0480	0.9	0.85	1000	-1000	1000	0.1	0.01	0	0	1;
	295	0.0	0.0	1.00	241.3500	120.6750	86.8860	0.9	0.85	1000	-1000	1000	0.1	0.01	0	0	1;
	398	0.0	0.0	1.00	239.7000	119.8500	86.2920	0.9	0.85	1000	-1000	1000	0.1	0.01	0	0	1;
	712	0.0	0.0	1.00	239.7000	119.8500	86.2920	0.9	0.85	1000	-1000	1000	0.1	0.01	0	0	1;
	272	0.0	0.0	1.00	238.9500	119.4750	86.0220	0.9	0.85	1000	-1000	1000	0.1	0.01	0	0	1;
	479	0.0	0.0	1.00	238.5000	119.2500	85.8600	0.9	0.85	1000	-1000	1000	0.1	0.01	0	0	1;
	260	0.0	0.0	1.00	236.2500	118.1250	85.0500	0.9	0.85	1000	-1000	1000	0.1	0.01	0	0	1;
	156	0.0	0.0	1.00	232.9500	116.4750	83.8620	0.9	0.85	1000	-1000	1000	0.1	0.01	0	0	1;
	990	0.0	0.0	1.00	232.3500	116.1750	83.6460	0.9	0.85	1000	-1000	1000	0.1	0.01	0	0	1;
	1183	0.0	0.0	1.00	228.3000	114.1500	82.1880	0.9	0.85	1000	-1000	1000	0.1	0.01	0	0	1;
	406	0.0	0.0	1.00	227.4000	113.7000	81.8640	0.9	0.85	1000	-1000	1000	0.1	0.01	0	0	1;
	1355	0.0	0.0	1.00	227.2500	113.6250	81.8100	0.9	0.85	1000	-1000	1000	0.1	0.01	0	0	1;
	595	0.0	0.0	1.00	226.6500	113.3250	81.5940	0.9	0.85	1000	-1000	1000	0.1	0.01	0	0	1;
	788	0.0	0.0	1.00	225.7500	112.8750	81.2700	0.9	0.85	1000	-1000	1000	0.1	0.01	0	0	1;
	1052	0.0	0.0	1.00	225.7500	112.8750	81.2700	0.9	0.85	1000	-1000	1000	0.1	0.01	0	0	1;
	517	0.0	0.0	1.00	224.7000	112.3500	80.8920	0.9	0.85	1000	-1000	1000	0.1	0.01	0	0	1;
	10	0.0	0.0	1.00	223.2000	111.6000	80.3520	0.9	0.85	1000	-1000	1000	0.1	0.01	0	0	1;
	464	0.0	0.0	1.00	222.9000	111.4500	80.2440	0.9	0.85	1000	-1000	1000	0.1	0.01	0	0	1;
	845	0.0	0.0	1.00	219.0000	109.5000	78.8400	0.9	0.85	1000	-1000	1000	0.1	0.01	0	0	1;
	732	0.0	0.0	1.00	218.7000	109.3500	78.7320	0.9	0.85	1000	-1000	1000	0.1	0.01	0	0	1;
	711	0.0	0.0	1.00	218.4000	109.2000	78.6240	0.9	0.85	1000	-1000	1000	0.1	0.01	0	0	1;
	1185	0.0	0.0	1.00	216.3000	108.1500	77.8680	0.9	0.85	1000	-1000	1000	0.1	0.01	0	0	1;
	3	0.0	0.0	1.00	213.7500	106.8750	76.9500	0.9	0.85	1000	-1000	1000	0.1	0.01	0	0	1;
	738	0.0	0.0	1.00	213.1500	106.5750	76.7340	0.9	0.85	1000	-1000	1000	0.1	0.01	0	0	1;
	1303	0.0	0.0	1.00	213.0000	106.5000	76.6800	0.9	0.85	1000	-1000	1000	0.1	0.01	0	0	1;
	317	0.0	0.0	1.00	212.4000	106.2000	76.4640	0.9	0.85	1000	-1000	1000	0.1	0.01	0	0	1;
	468	0.0	0.0	1.00	212.1000	106.0500	76.3560	0.9	0.85	1000	-1000	1000	0.1	0.01	0	0	1;
	1144	0.0	0.0	1.00	211.5000	105.7500	76.1400	0.9	0.85	1000	-1000	1000	0.1	0.01	0	0	1;
	123	0.0	0.0	1.00	210.4500	105.2250	75.7620	0.9	0.85	1000	-1000	1000	0.1	0.01	0	0	1;
	414	0.0	0.0	1.00	208.8000	104.4000	75.1680	0.9	0.85	1000	-1000	1000	0.1	0.01	0	0	1;
	1377	0.0	0.0	1.00	208.3500	104.1750	75.0060	0.9	0.85	1000	-1000	1000	0.1	0.01	0	0	1;
	1823	0.0	0.0	1.00	206.5500	103.2750	74.3580	0.9	0.85	1000	-1000	1000	0.1	0.01	0	0	1;
	1824	0.0	0.0	1.00	206.2500	103.1250	74.2500	0.9	0.85	1000	-1000	1000	0.1	0.01	0	0	1;
	40	0.0	0.0	1.00	204.3000	102.1500	73.5480	0.9	0.85	1000	-1000	1000	0.1	0.01	0	0	1;
	1240	0.0	0.0	1.00	203.2500	101.6250	73.1700	0.9	0.85	1000	-1000	1000	0.1	0.01	0	0	1;
	1024	0.0	0.0	1.00	202.5000	101.2500	72.9000	0.9	0.85	1000	-1000	1000	0.1	0.01	0	0	1;
	882	0.0	0.0	1.00	201.7500	100.8750	72.6300	0.9	0.85	1000	-1000	1000	0.1	0.01	0	0	1;
	670	0.0	0.0	1.00	201.1500	100.5750	72.4140	0.9	0.85	1000	-1000	1000	0.1	0.01	0	0	1;
	1206	0.0	0.0	1.00	200.8500	100.4250	72.3060	0.9	0.85	1000	-1000	1000	0.1	0.01	0	0	1;
	1121	0.0	0.0	1.00	199.3500	99.6750	71.7660	0.9	0.85	1000	-1000	1000	0.1	0.01	0	0	1;
	75	0.0	0.0	1.00	197.8500	98.9250	71.2260	0.9	0.85	1000	-1000	1000	0.1	0.01	0	0	1;
	870	0.0	0.0	1.00	197.8500	98.9250	71.2260	0.9	0.85	1000	-1000	1000	0.1	0.01	0	0	1;
	1224	0.0	0.0	1.00	197.2500	98.6250	71.0100	0.9	0.85	1000	-1000	1000	0.1	0.01	0	0	1;
	237	0.0	0.0	1.00	193.5000	96.7500	69.6600	0.9	0.85	1000	-1000	1000	0.1	0.01	0	0	1;
	584	0.0	0.0	1.00	193.3500	96.6750	69.6060	0.9	0.85	1000	-1000	1000	0.1	0.01	0	0	1;
	607	0.0	0.0	1.00	192.1500	96.0750	69.1740	0.9	0.85	1000	-1000	1000	0.1	0.01	0	0	1;
	448	0.0	0.0	1.00	190.3500	95.1750	68.5260	0.9	0.85	1000	-1000	1000	0.1	0.01	0	0	1;
	1225	0.0	0.0	1.00	189.6000	94.8000	68.2560	0.9	0.85	1000	-1000	1000	0.1	0.01	0	0	1;
	1033	0.0	0.0	1.00	188.8500	94.4250	67.9860	0.9	0.85	1000	-1000	1000	0.1	0.01	0	0	1;
	1193	0.0	0.0	1.00	188.8500	94.4250	67.9860	0.9	0.85	1000	-1000	1000	0.1	0.01	0	0	1;
	991	0.0	0.0	1.00	188.2500	94.1250	67.7700	0.9	0.85	1000	-1000	1000	0.1	0.01	0	0	1;
	1030	0.0	0.0	1.00	187.6500	93.8250	67.5540	0.9	0.85	1000	-1000	1000	0.1	0.01	0	0	1;
	1115	0.0	0.0	1.00	187.2000	93.6000	67.3920	0.9	0.85	1000	-1000	1000	0.1	0.01	0	0	1;
	202	0.0	0.0	1.00	186.3000	93.1500	67.0680	0.9	0.85	1000	-1000	1000	0.1	0.01	0	0	1;
	119	0.0	0.0	1.00	185.4000	92.7000	66.7440	0.9	0.85	1000	-1000	1000	0.1	0.01	0	0	1;
	529	0.0	0.0	1.00	185.4000	92.7000	66.7440	0.9	0.85	1000	-1000	1000	0.1	0.01	0	0	1;
	515	0.0	0.0	1.00	184.6500	92.3250	66.4740	0.9	0.85	1000	-1000	1000	0.1	0.01	0	0	1;
	950	0.0	0.0	1.00	183.1500	91.5750	65.9340	0.9	0.85	1000	-1000	1000	0.1	0.01	0	0	1;
	1808	0.0	0.0	1.00	183.0000	91.5000	65.8800	0.9	0.85	1000	-1000	1000	0.1	0.01	0	0	1;
	1031	0.0	0.0	1.00	182.5500	91.2750	65.7180	0.9	0.85	1000	-1000	1000	0.1	0.01	0	0	1;
	346	0.0	0.0	1.00	180.6000	90.3000	65.0160	0.9	0.85	1000	-1000	1000	0.1	0.01	0	0	1;
	676	0.0	0.0	1.00	179.4000	89.7000	64.5840	0.9	0.85	1000	-1000	1000	0.1	0.01	0	0	1;
	227	0.0	0.0	1.00	178.9500	89.4750	64.4220	0.9	0.85	1000	-1000	1000	0.1	0.01	0	0	1;
	1096	0.0	0.0	1.00	178.5000	89.2500	64.2600	0.9	0.85	1000	-1000	1000	0.1	0.01	0	0	1;
	1241	0.0	0.0	1.00	178.3500	89.1750	64.2060	0.9	0.85	1000	-1000	1000	0.1	0.01	0	0	1;
	1170	0.0	0.0	1.00	177.3000	88.6500	63.8280	0.9	0.85	1000	-1000	1000	0.1	0.01	0	0	1;
	963	0.0	0.0	1.00	177.0000	88.5000	63.7200	0.9	0.85	1000	-1000	1000	0.1	0.01	0	0	1;
	740	0.0	0.0	1.00	174.9000	87.4500	62.9640	0.9	0.85	1000	-1000	1000	0.1	0.01	0	0	1;
	1301	0.0	0.0	1.00	174.9000	87.4500	62.9640	0.9	0.85	1000	-1000	1000	0.1	0.01	0	0	1;
	112	0.0	0.0	1.00	174.6000	87.3000	62.8560	0.9	0.85	1000	-1000	1000	0.1	0.01	0	0	1;
	1268	0.0	0.0	1.00	172.5000	86.2500	62.1000	0.9	0.85	1000	-1000	1000	0.1	0.01	0	0	1;
	368	0.0	0.0	1.00	172.2000	86.1000	61.9920	0.9	0.85	1000	-1000	1000	0.1	0.01	0	0	1;
	981	0.0	0.0	1.00	171.0000	85.5000	61.5600	0.9	0.85	1000	-1000	1000	0.1	0.01	0	0	1;
	140	0.0	0.0	1.00	170.5500	85.2750	61.3980	0.9	0.85	1000	-1000	1000	0.1	0.01	0	0	1;
	754	0.0	0.0	1.00	170.5500	85.2750	61.3980	0.9	0.85	1000	-1000	1000	0.1	0.01	0	0	1;
	365	0.0	0.0	1.00	169.9500	84.9750	61.1820	0.9	0.85	1000	-1000	1000	0.1	0.01	0	0	1;
	840	0.0	0.0	1.00	169.9500	84.9750	61.1820	0.9	0.85	1000	-1000	1000	0.1	0.01	0	0	1;
	1021	0.0	0.0	1.00	169.0500	84.5250	60.8580	0.9	0.85	1000	-1000	1000	0.1	0.01	0	0	1;
	734	0.0	0.0	1.00	168.9000	84.4500	60.8040	0.9	0.85	1000	-1000	1000	0.1	0.01	0	0	1;
	718	0.0	0.0	1.00	168.7500	84.3750	60.7500	0.9	0.85	1000	-1000	1000	0.1	0.01	0	0	1;
	713	0.0	0.0	1.00	168.0000	84.0000	60.4800	0.9	0.85	1000	-1000	1000	0.1	0.01	0	0	1;
	334	0.0	0.0	1.00	167.8500	83.9250	60.4260	0.9	0.85	1000	-1000	1000	0.1	0.01	0	0	1;
	354	0.0	0.0	1.00	167.4000	83.7000	60.2640	0.9	0.85	1000	-1000	1000	0.1	0.01	0	0	1;
	893	0.0	0.0	1.00	166.6500	83.3250	59.9940	0.9	0.85	1000	-1000	1000	0.1	0.01	0	0	1;
	601	0.0	0.0	1.00	166.0500	83.0250	59.7780	0.9	0.85	1000	-1000	1000	0.1	0.01	0	0	1;
	2072	0.0	0.0	1.00	165.6000	82.8000	59.6160	0.9	0.85	1000	-1000	1000	0.1	0.01	0	0	1;
	435	0.0	0.0	1.00	165.0000	82.5000	59.4000	0.9	0.85	1000	-1000	1000	0.1	0.01	0	0	1;
	1827	0.0	0.0	1.00	164.4000	82.2000	59.1840	0.9	0.85	1000	-1000	1000	0.1	0.01	0	0	1;
	731	0.0	0.0	1.00	164.1000	82.0500	59.0760	0.9	0.85	1000	-1000	1000	0.1	0.01	0	0	1;
	290	0.0	0.0	1.00	162.6000	81.3000	58.5360	0.9	0.85	1000	-1000	1000	0.1	0.01	0	0	1;
	181	0.0	0.0	1.00	161.8500	80.9250	58.2660	0.9	0.85	1000	-1000	1000	0.1	0.01	0	0	1;
	544	0.0	0.0	1.00	161.5500	80.7750	58.1580	0.9	0.85	1000	-1000	1000	0.1	0.01	0	0	1;
	1322	0.0	0.0	1.00	161.5500	80.7750	58.1580	0.9	0.85	1000	-1000	1000	0.1	0.01	0	0	1;
	114	0.0	0.0	1.00	160.8000	80.4000	57.8880	0.9	0.85	1000	-1000	1000	0.1	0.01	0	0	1;
	1043	0.0	0.0	1.00	159.9000	79.9500	57.5640	0.9	0.85	1000	-1000	1000	0.1	0.01	0	0	1;
	259	0.0	0.0	1.00	159.7500	79.8750	57.5100	0.9	0.85	1000	-1000	1000	0.1	0.01	0	0	1;
	137	0.0	0.0	1.00	159.6000	79.8000	57.4560	0.9	0.85	1000	-1000	1000	0.1	0.01	0	0	1;
	919	0.0	0.0	1.00	159.6000	79.8000	57.4560	0.9	0.85	1000	-1000	1000	0.1	0.01	0	0	1;
	107	0.0	0.0	1.00	159.1500	79.5750	57.2940	0.9	0.85	1000	-1000	1000	0.1	0.01	0	0	1;
	329	0.0	0.0	1.00	159.1500	79.5750	57.2940	0.9	0.85	1000	-1000	1000	0.1	0.01	0	0	1;
	1028	0.0	0.0	1.00	159.1500	79.5750	57.2940	0.9	0.85	1000	-1000	1000	0.1	0.01	0	0	1;
	28	0.0	0.0	1.00	158.1000	79.0500	56.9160	0.9	0.85	1000	-1000	1000	0.1	0.01	0	0	1;
	1208	0.0	0.0	1.00	157.5000	78.7500	56.7000	0.9	0.85	1000	-1000	1000	0.1	0.01	0	0	1;
	1349	0.0	0.0	1.00	157.0500	78.5250	56.5380	0.9	0.85	1000	-1000	1000	0.1	0.01	0	0	1;
	1329	0.0	0.0	1.00	156.7500	78.3750	56.4300	0.9	0.85	1000	-1000	1000	0.1	0.01	0	0	1;
	1222	0.0	0.0	1.00	156.1500	78.0750	56.2140	0.9	0.85	1000	-1000	1000	0.1	0.01	0	0	1;
	660	0.0	0.0	1.00	155.8500	77.9250	56.1060	0.9	0.85	1000	-1000	1000	0.1	0.01	0	0	1;
	409	0.0	0.0	1.00	155.2500	77.6250	55.8900	0.9	0.85	1000	-1000	1000	0.1	0.01	0	0	1;
	715	0.0	0.0	1.00	155.1000	77.5500	55.8360	0.9	0.85	1000	-1000	1000	0.1	0.01	0	0	1;
	568	0.0	0.0	1.00	154.9500	77.4750	55.7820	0.9	0.85	1000	-1000	1000	0.1	0.01	0	0	1;
	626	0.0	0.0	1.00	154.3500	77.1750	55.5660	0.9	0.85	1000	-1000	1000	0.1	0.01	0	0	1;
	780	0.0	0.0	1.00	153.1500	76.5750	55.1340	0.9	0.85	1000	-1000	1000	0.1	0.01	0	0	1;
	844	0.0	0.0	1.00	152.4000	76.2000	54.8640	0.9	0.85	1000	-1000	1000	0.1	0.01	0	0	1;
	53	0.0	0.0	1.00	151.8000	75.9000	54.6480	0.9	0.85	1000	-1000	1000	0.1	0.01	0	0	1;
	953	0.0	0.0	1.00	151.6500	75.8250	54.5940	0.9	0.85	1000	-1000	1000	0.1	0.01	0	0	1;
	1344	0.0	0.0	1.00	151.3500	75.6750	54.4860	0.9	0.85	1000	-1000	1000	0.1	0.01	0	0	1;
	923	0.0	0.0	1.00	150.9000	75.4500	54.3240	0.9	0.85	1000	-1000	1000	0.1	0.01	0	0	1;
	760	0.0	0.0	1.00	150.0000	75.0000	54.0000	0.9	0.85	1000	-1000	1000	0.1	0.01	0	0	1;
	111	0.0	0.0	1.00	149.2500	74.6250	53.7300	0.9	0.85	1000	-1000	1000	0.1	0.01	0	0	1;
	1149	0.0	0.0	1.00	149.2500	74.6250	53.7300	0.9	0.85	1000	-1000	1000	0.1	0.01	0	0	1;
	865	0.0	0.0	1.00	148.9500	74.4750	53.6220	0.9	0.85	1000	-1000	1000	0.1	0.01	0	0	1;
	459	0.0	0.0	1.00	148.6500	74.3250	53.5140	0.9	0.85	1000	-1000	1000	0.1	0.01	0	0	1;
	493	0.0	0.0	1.00	148.6500	74.3250	53.5140	0.9	0.85	1000	-1000	1000	0.1	0.01	0	0	1;
	1044	0.0	0.0	1.00	148.5000	74.2500	53.4600	0.9	0.85	1000	-1000	1000	0.1	0.01	0	0	1;
	1189	0.0	0.0	1.00	148.3500	74.1750	53.4060	0.9	0.85	1000	-1000	1000	0.1	0.01	0	0	1;
	658	0.0	0.0	1.00	148.0500	74.0250	53.2980	0.9	0.85	1000	-1000	1000	0.1	0.01	0	0	1;
	610	0.0	0.0	1.00	147.4500	73.7250	53.0820	0.9	0.85	1000	-1000	1000	0.1	0.01	0	0	1;
	416	0.0	0.0	1.00	146.8500	73.4250	52.8660	0.9	0.85	1000	-1000	1000	0.1	0.01	0	0	1;
	622	0.0	0.0	1.00	145.8000	72.9000	52.4880	0.9	0.85	1000	-1000	1000	0.1	0.01	0	0	1;
	609	0.0	0.0	1.00	145.6500	72.8250	52.4340	0.9	0.85	1000	-1000	1000	0.1	0.01	0	0	1;
	309	0.0	0.0	1.00	145.3500	72.6750	52.3260	0.9	0.85	1000	-1000	1000	0.1	0.01	0	0	1;
	1215	0.0	0.0	1.00	145.2000	72.6000	52.2720	0.9	0.85	1000	-1000	1000	0.1	0.01	0	0	1;
	653	0.0	0.0	1.00	142.9500	71.4750	51.4620	0.9	0.85	1000	-1000	1000	0.1	0.01	0	0	1;
];

%% branch data
%	fbus	tbus	r	x	b	rateA	rateB	rateC	ratio	angle	status	angmin	angmax
mpc.branch = [
	1833	 1	 0.002607	 0.017462	 0.0324	 540.0	 540.0	 540.0	 0.0	 0.0	 1	 -30.0	 30.0;
	29	 2	 2.1e-05	 0.000125	 0.1386	 737.0	 737.0	 737.0	 0.0	 0.0	 1	 -30.0	 30.0;
	675	 2	 0.000145	 0.001877	 0.0635	 2487.0	 2487.0	 2487.0	 0.0	 0.0	 1	 -30.0	 30.0;
	1271	 2	 0.000319	 0.003234	 0.0838	 1841.0	 1841.0	 1841.0	 0.0	 0.0	 1	 -30.0	 30.0;
	30	 2	 2.1e-05	 0.000125	 0.1386	 737.0	 737.0	 737.0	 0.0	 0.0	 1	 -30.0	 30.0;
	142	 3	 0.006163	 0.041067	 0.0759	 446.0	 446.0	 446.0	 0.0	 0.0	 1	 -30.0	 30.0;
	677	 3	 0.000652	 0.004369	 0.0081	 558.0	 558.0	 558.0	 0.0	 0.0	 1	 -30.0	 30.0;
	1048	 4	 0.009733	 0.034089	 0.0185	 905	 905	 905	 0.0	 0.0	 1	 -30.0	 30.0;
	101	 5	 0.000277	 0.002015	 0.003	 288.0	 288.0	 288.0	 0.0	 0.0	 1	 -30.0	 30.0;
	286	 6	 0.00881	 0.033995	 0.0607	 289.0	 289.0	 289.0	 0.0	 0.0	 1	 -30.0	 30.0;
	329	 6	 0.004642	 0.019832	 0.0354	 255.0	 255.0	 255.0	 0.0	 0.0	 1	 -30.0	 30.0;
	737	 5	 0.008861	 0.03506	 0.0623	 288.0	 288.0	 288.0	 0.0	 0.0	 1	 -30.0	 30.0;
...